/*---------------------------------------------------------------------------*\
  =========                 |
  \\      /  F ield         | OpenFOAM: The Open Source CFD Toolbox
   \\    /   O peration     | Website:  https://openfoam.org
    \\  /    A nd           | Version:  9
     \\/     M anipulation  |
\*---------------------------------------------------------------------------*/
Build  : 9-c96968adf6d8
Exec   : lbm1Foam
Date   : Oct 12 2022
Time   : 17:42:33
Host   : "LAPTOP-GAK6QHN0"
PID    : 1905
I/O    : uncollated
Case   : /home/mala/OpenFOAM/mala-9/platforms/linux64GccDPInt32Opt/src/solvers/lbmFoam/test/lbm1Foam
nProcs : 1
sigFpe : Enabling floating point exception trapping (FOAM_SIGFPE).
fileModificationChecking : Monitoring run-time modified files using timeStampMaster (fileModificationSkew 10)
allowSystemOperations : Allowing user-supplied system call operations

// * * * * * * * * * * * * * * * * * * * * * * * * * * * * * * * * * * * * * //
Create time

Create mesh for time = 0


PIMPLE: No convergence criteria found


PIMPLE: Operating solver in transient mode with 1 outer corrector
PIMPLE: Operating solver in PISO mode


Reading field U

Reading transportProperties

Creating LB fields

Squared Mach number = 0.000625879

BGK (lattice) relaxation time = 0.8

No fvConstraints present
No fvModels present

Initialize simulation

Volume = 20

Starting velocity error = 1

GAMG:  Solving for f_0, Initial residual = 2.27368e-11, Final residual = 3.4523e-12, No Iterations 100
GAMG:  Solving for f_1, Initial residual = 0.0150919, Final residual = 1.08182e-13, No Iterations 1
GAMG:  Solving for f_2, Initial residual = 0.0150632, Final residual = 1.81628e-13, No Iterations 1
 Initialization iterations = 1
Velocity error reached = 6.89448e-17
Initial pressure error = 2.01947e-06
Mass loss = 3.41986e-12
Mass fraction = 1
Velocity fraction = 1


Time loop

Time = 0.002

GAMG:  Solving for f_0, Initial residual = 3.4523e-12, Final residual = 3.4523e-12, No Iterations 100
GAMG:  Solving for f_1, Initial residual = 0.00670778, Final residual = 9.26171e-14, No Iterations 1
GAMG:  Solving for f_2, Initial residual = 0.00650343, Final residual = 1.70137e-13, No Iterations 1
ExecutionTime = 0.07 s    ClockTime = 0 s

Time = 0.004

GAMG:  Solving for f_0, Initial residual = 0.248784, Final residual = 3.0086e-12, No Iterations 1
GAMG:  Solving for f_1, Initial residual = 0.00792463, Final residual = 9.20842e-14, No Iterations 1
GAMG:  Solving for f_2, Initial residual = 0.00689888, Final residual = 1.51044e-13, No Iterations 1
ExecutionTime = 0.07 s    ClockTime = 0 s

Time = 0.006

GAMG:  Solving for f_0, Initial residual = 0.126104, Final residual = 2.29584e-12, No Iterations 1
GAMG:  Solving for f_1, Initial residual = 0.00721763, Final residual = 1.06275e-13, No Iterations 1
GAMG:  Solving for f_2, Initial residual = 0.00605417, Final residual = 1.60548e-13, No Iterations 1
ExecutionTime = 0.07 s    ClockTime = 0 s

Time = 0.008

GAMG:  Solving for f_0, Initial residual = 0.0729165, Final residual = 1.88142e-12, No Iterations 1
GAMG:  Solving for f_1, Initial residual = 0.00669724, Final residual = 9.89669e-14, No Iterations 1
GAMG:  Solving for f_2, Initial residual = 0.00558177, Final residual = 1.61606e-13, No Iterations 1
ExecutionTime = 0.08 s    ClockTime = 0 s

Time = 0.01

GAMG:  Solving for f_0, Initial residual = 0.0451774, Final residual = 1.61485e-12, No Iterations 1
GAMG:  Solving for f_1, Initial residual = 0.00651154, Final residual = 9.85401e-14, No Iterations 1
GAMG:  Solving for f_2, Initial residual = 0.00531765, Final residual = 1.65164e-13, No Iterations 1
ExecutionTime = 0.08 s    ClockTime = 0 s

Time = 0.012

GAMG:  Solving for f_0, Initial residual = 0.0285886, Final residual = 1.51515e-12, No Iterations 1
GAMG:  Solving for f_1, Initial residual = 0.00633326, Final residual = 9.63814e-14, No Iterations 1
GAMG:  Solving for f_2, Initial residual = 0.00518266, Final residual = 1.61106e-13, No Iterations 1
ExecutionTime = 0.08 s    ClockTime = 0 s

Time = 0.014

GAMG:  Solving for f_0, Initial residual = 0.0196441, Final residual = 1.48083e-12, No Iterations 1
GAMG:  Solving for f_1, Initial residual = 0.00614012, Final residual = 9.97497e-14, No Iterations 1
GAMG:  Solving for f_2, Initial residual = 0.00516894, Final residual = 1.69047e-13, No Iterations 1
ExecutionTime = 0.08 s    ClockTime = 0 s

Time = 0.016

GAMG:  Solving for f_0, Initial residual = 0.0181441, Final residual = 1.42763e-12, No Iterations 1
GAMG:  Solving for f_1, Initial residual = 0.00594913, Final residual = 9.30234e-14, No Iterations 1
GAMG:  Solving for f_2, Initial residual = 0.00509205, Final residual = 1.64027e-13, No Iterations 1
ExecutionTime = 0.08 s    ClockTime = 0 s

Time = 0.018

GAMG:  Solving for f_0, Initial residual = 0.0187846, Final residual = 1.35772e-12, No Iterations 1
GAMG:  Solving for f_1, Initial residual = 0.00575445, Final residual = 9.96439e-14, No Iterations 1
GAMG:  Solving for f_2, Initial residual = 0.00494101, Final residual = 1.62938e-13, No Iterations 1
ExecutionTime = 0.09 s    ClockTime = 0 s

Time = 0.02

GAMG:  Solving for f_0, Initial residual = 0.01995, Final residual = 1.46036e-12, No Iterations 1
GAMG:  Solving for f_1, Initial residual = 0.00554085, Final residual = 9.11522e-14, No Iterations 1
GAMG:  Solving for f_2, Initial residual = 0.00478032, Final residual = 1.65237e-13, No Iterations 1
ExecutionTime = 0.09 s    ClockTime = 0 s

Time = 0.022

GAMG:  Solving for f_0, Initial residual = 0.0207325, Final residual = 1.42306e-12, No Iterations 1
GAMG:  Solving for f_1, Initial residual = 0.00529074, Final residual = 9.78018e-14, No Iterations 1
GAMG:  Solving for f_2, Initial residual = 0.00456864, Final residual = 1.63478e-13, No Iterations 1
ExecutionTime = 0.09 s    ClockTime = 0 s

Time = 0.024

GAMG:  Solving for f_0, Initial residual = 0.0210551, Final residual = 1.47856e-12, No Iterations 1
GAMG:  Solving for f_1, Initial residual = 0.00500585, Final residual = 9.6003e-14, No Iterations 1
GAMG:  Solving for f_2, Initial residual = 0.00436432, Final residual = 1.63869e-13, No Iterations 1
ExecutionTime = 0.09 s    ClockTime = 0 s

Time = 0.026

GAMG:  Solving for f_0, Initial residual = 0.0212339, Final residual = 1.52173e-12, No Iterations 1
GAMG:  Solving for f_1, Initial residual = 0.00472954, Final residual = 9.33175e-14, No Iterations 1
GAMG:  Solving for f_2, Initial residual = 0.00415464, Final residual = 1.66445e-13, No Iterations 1
ExecutionTime = 0.09 s    ClockTime = 0 s

Time = 0.028

GAMG:  Solving for f_0, Initial residual = 0.0211873, Final residual = 1.33306e-12, No Iterations 1
GAMG:  Solving for f_1, Initial residual = 0.00447364, Final residual = 9.65008e-14, No Iterations 1
GAMG:  Solving for f_2, Initial residual = 0.00396055, Final residual = 1.62123e-13, No Iterations 1
ExecutionTime = 0.1 s    ClockTime = 0 s

Time = 0.03

GAMG:  Solving for f_0, Initial residual = 0.0209611, Final residual = 1.40822e-12, No Iterations 1
GAMG:  Solving for f_1, Initial residual = 0.00421841, Final residual = 9.90884e-14, No Iterations 1
GAMG:  Solving for f_2, Initial residual = 0.00375526, Final residual = 1.71248e-13, No Iterations 1
ExecutionTime = 0.1 s    ClockTime = 0 s

Time = 0.032

GAMG:  Solving for f_0, Initial residual = 0.0204973, Final residual = 1.57615e-12, No Iterations 1
GAMG:  Solving for f_1, Initial residual = 0.00397219, Final residual = 9.45791e-14, No Iterations 1
GAMG:  Solving for f_2, Initial residual = 0.00355657, Final residual = 1.68413e-13, No Iterations 1
ExecutionTime = 0.1 s    ClockTime = 0 s

Time = 0.034

GAMG:  Solving for f_0, Initial residual = 0.0198733, Final residual = 1.55144e-12, No Iterations 1
GAMG:  Solving for f_1, Initial residual = 0.00375496, Final residual = 1.02199e-13, No Iterations 1
GAMG:  Solving for f_2, Initial residual = 0.00336277, Final residual = 1.72827e-13, No Iterations 1
ExecutionTime = 0.1 s    ClockTime = 0 s

Time = 0.036

GAMG:  Solving for f_0, Initial residual = 0.0190325, Final residual = 1.52468e-12, No Iterations 1
GAMG:  Solving for f_1, Initial residual = 0.00355673, Final residual = 9.58974e-14, No Iterations 1
GAMG:  Solving for f_2, Initial residual = 0.00320097, Final residual = 1.74418e-13, No Iterations 1
ExecutionTime = 0.11 s    ClockTime = 0 s

Time = 0.038

GAMG:  Solving for f_0, Initial residual = 0.0181394, Final residual = 1.65722e-12, No Iterations 1
GAMG:  Solving for f_1, Initial residual = 0.00335774, Final residual = 1.02944e-13, No Iterations 1
GAMG:  Solving for f_2, Initial residual = 0.00304508, Final residual = 1.64614e-13, No Iterations 1
ExecutionTime = 0.11 s    ClockTime = 0 s

Time = 0.04

GAMG:  Solving for f_0, Initial residual = 0.0171664, Final residual = 1.6067e-12, No Iterations 1
GAMG:  Solving for f_1, Initial residual = 0.00317133, Final residual = 9.65971e-14, No Iterations 1
GAMG:  Solving for f_2, Initial residual = 0.00289655, Final residual = 1.6777e-13, No Iterations 1
ExecutionTime = 0.11 s    ClockTime = 0 s

Time = 0.042

GAMG:  Solving for f_0, Initial residual = 0.016245, Final residual = 1.70857e-12, No Iterations 1
GAMG:  Solving for f_1, Initial residual = 0.00301751, Final residual = 1.0128e-13, No Iterations 1
GAMG:  Solving for f_2, Initial residual = 0.00275512, Final residual = 1.66787e-13, No Iterations 1
ExecutionTime = 0.11 s    ClockTime = 0 s

Time = 0.044

GAMG:  Solving for f_0, Initial residual = 0.015395, Final residual = 1.86774e-12, No Iterations 1
GAMG:  Solving for f_1, Initial residual = 0.00288353, Final residual = 1.00295e-13, No Iterations 1
GAMG:  Solving for f_2, Initial residual = 0.00263441, Final residual = 1.70237e-13, No Iterations 1
ExecutionTime = 0.11 s    ClockTime = 0 s

Time = 0.046

GAMG:  Solving for f_0, Initial residual = 0.0145359, Final residual = 1.80056e-12, No Iterations 1
GAMG:  Solving for f_1, Initial residual = 0.00275224, Final residual = 9.75002e-14, No Iterations 1
GAMG:  Solving for f_2, Initial residual = 0.00252453, Final residual = 1.70823e-13, No Iterations 1
ExecutionTime = 0.11 s    ClockTime = 0 s

Time = 0.048

GAMG:  Solving for f_0, Initial residual = 0.0137082, Final residual = 1.8913e-12, No Iterations 1
GAMG:  Solving for f_1, Initial residual = 0.00262357, Final residual = 1.04e-13, No Iterations 1
GAMG:  Solving for f_2, Initial residual = 0.00242257, Final residual = 1.67577e-13, No Iterations 1
ExecutionTime = 0.11 s    ClockTime = 0 s

Time = 0.05

GAMG:  Solving for f_0, Initial residual = 0.0129516, Final residual = 1.66812e-12, No Iterations 1
GAMG:  Solving for f_1, Initial residual = 0.00249987, Final residual = 1.01782e-13, No Iterations 1
GAMG:  Solving for f_2, Initial residual = 0.00232632, Final residual = 1.66562e-13, No Iterations 1
ExecutionTime = 0.11 s    ClockTime = 0 s

Time = 0.052

GAMG:  Solving for f_0, Initial residual = 0.012256, Final residual = 1.80475e-12, No Iterations 1
GAMG:  Solving for f_1, Initial residual = 0.00238842, Final residual = 1.04078e-13, No Iterations 1
GAMG:  Solving for f_2, Initial residual = 0.00223488, Final residual = 1.65546e-13, No Iterations 1
ExecutionTime = 0.13 s    ClockTime = 0 s

Time = 0.054

GAMG:  Solving for f_0, Initial residual = 0.0115734, Final residual = 1.96741e-12, No Iterations 1
GAMG:  Solving for f_1, Initial residual = 0.00229004, Final residual = 1.06378e-13, No Iterations 1
GAMG:  Solving for f_2, Initial residual = 0.00215104, Final residual = 1.7317e-13, No Iterations 1
ExecutionTime = 0.13 s    ClockTime = 0 s

Time = 0.056

GAMG:  Solving for f_0, Initial residual = 0.0109519, Final residual = 1.95194e-12, No Iterations 1
GAMG:  Solving for f_1, Initial residual = 0.00220426, Final residual = 9.9903e-14, No Iterations 1
GAMG:  Solving for f_2, Initial residual = 0.00207324, Final residual = 1.7341e-13, No Iterations 1
ExecutionTime = 0.13 s    ClockTime = 0 s

Time = 0.058

GAMG:  Solving for f_0, Initial residual = 0.0104149, Final residual = 1.81348e-12, No Iterations 1
GAMG:  Solving for f_1, Initial residual = 0.0021219, Final residual = 1.02804e-13, No Iterations 1
GAMG:  Solving for f_2, Initial residual = 0.00199786, Final residual = 1.66577e-13, No Iterations 1
ExecutionTime = 0.13 s    ClockTime = 0 s

Time = 0.06

GAMG:  Solving for f_0, Initial residual = 0.00990085, Final residual = 1.97791e-12, No Iterations 1
GAMG:  Solving for f_1, Initial residual = 0.00204207, Final residual = 1.02974e-13, No Iterations 1
GAMG:  Solving for f_2, Initial residual = 0.00192782, Final residual = 1.70352e-13, No Iterations 1
ExecutionTime = 0.13 s    ClockTime = 0 s

Time = 0.062

GAMG:  Solving for f_0, Initial residual = 0.00944331, Final residual = 1.97006e-12, No Iterations 1
GAMG:  Solving for f_1, Initial residual = 0.00196521, Final residual = 1.02527e-13, No Iterations 1
GAMG:  Solving for f_2, Initial residual = 0.00186322, Final residual = 1.73813e-13, No Iterations 1
ExecutionTime = 0.13 s    ClockTime = 0 s

Time = 0.064

GAMG:  Solving for f_0, Initial residual = 0.00903556, Final residual = 2.01112e-12, No Iterations 1
GAMG:  Solving for f_1, Initial residual = 0.00189427, Final residual = 9.84197e-14, No Iterations 1
GAMG:  Solving for f_2, Initial residual = 0.00180428, Final residual = 1.67905e-13, No Iterations 1
ExecutionTime = 0.13 s    ClockTime = 0 s

Time = 0.066

GAMG:  Solving for f_0, Initial residual = 0.00867908, Final residual = 1.95152e-12, No Iterations 1
GAMG:  Solving for f_1, Initial residual = 0.00183139, Final residual = 1.02844e-13, No Iterations 1
GAMG:  Solving for f_2, Initial residual = 0.00175113, Final residual = 1.7328e-13, No Iterations 1
ExecutionTime = 0.14 s    ClockTime = 0 s

Time = 0.068

GAMG:  Solving for f_0, Initial residual = 0.00833449, Final residual = 2.0807e-12, No Iterations 1
GAMG:  Solving for f_1, Initial residual = 0.00177226, Final residual = 1.07888e-13, No Iterations 1
GAMG:  Solving for f_2, Initial residual = 0.001701, Final residual = 1.68954e-13, No Iterations 1
ExecutionTime = 0.14 s    ClockTime = 0 s

Time = 0.07

GAMG:  Solving for f_0, Initial residual = 0.00799769, Final residual = 1.96836e-12, No Iterations 1
GAMG:  Solving for f_1, Initial residual = 0.00171765, Final residual = 1.0957e-13, No Iterations 1
GAMG:  Solving for f_2, Initial residual = 0.00165342, Final residual = 1.74017e-13, No Iterations 1
ExecutionTime = 0.14 s    ClockTime = 0 s

Time = 0.072

GAMG:  Solving for f_0, Initial residual = 0.00768227, Final residual = 1.96971e-12, No Iterations 1
GAMG:  Solving for f_1, Initial residual = 0.00166921, Final residual = 1.02976e-13, No Iterations 1
GAMG:  Solving for f_2, Initial residual = 0.00160747, Final residual = 1.69678e-13, No Iterations 1
ExecutionTime = 0.14 s    ClockTime = 0 s

Time = 0.074

GAMG:  Solving for f_0, Initial residual = 0.00739258, Final residual = 2.21689e-12, No Iterations 1
GAMG:  Solving for f_1, Initial residual = 0.00162317, Final residual = 1.09254e-13, No Iterations 1
GAMG:  Solving for f_2, Initial residual = 0.00156379, Final residual = 1.76039e-13, No Iterations 1
ExecutionTime = 0.14 s    ClockTime = 0 s

Time = 0.076

GAMG:  Solving for f_0, Initial residual = 0.00712509, Final residual = 2.1276e-12, No Iterations 1
GAMG:  Solving for f_1, Initial residual = 0.00158001, Final residual = 1.02027e-13, No Iterations 1
GAMG:  Solving for f_2, Initial residual = 0.0015225, Final residual = 1.69728e-13, No Iterations 1
ExecutionTime = 0.14 s    ClockTime = 0 s

Time = 0.078

GAMG:  Solving for f_0, Initial residual = 0.00686119, Final residual = 1.99677e-12, No Iterations 1
GAMG:  Solving for f_1, Initial residual = 0.00153883, Final residual = 1.10473e-13, No Iterations 1
GAMG:  Solving for f_2, Initial residual = 0.00148311, Final residual = 1.73815e-13, No Iterations 1
ExecutionTime = 0.15 s    ClockTime = 0 s

Time = 0.08

GAMG:  Solving for f_0, Initial residual = 0.0066121, Final residual = 2.08814e-12, No Iterations 1
GAMG:  Solving for f_1, Initial residual = 0.00149948, Final residual = 1.01991e-13, No Iterations 1
GAMG:  Solving for f_2, Initial residual = 0.00144555, Final residual = 1.66179e-13, No Iterations 1
ExecutionTime = 0.15 s    ClockTime = 0 s

Time = 0.082

GAMG:  Solving for f_0, Initial residual = 0.00638873, Final residual = 2.16694e-12, No Iterations 1
GAMG:  Solving for f_1, Initial residual = 0.00146262, Final residual = 1.03356e-13, No Iterations 1
GAMG:  Solving for f_2, Initial residual = 0.00140977, Final residual = 1.7483e-13, No Iterations 1
ExecutionTime = 0.15 s    ClockTime = 0 s

Time = 0.084

GAMG:  Solving for f_0, Initial residual = 0.0061819, Final residual = 2.17943e-12, No Iterations 1
GAMG:  Solving for f_1, Initial residual = 0.00142813, Final residual = 1.05342e-13, No Iterations 1
GAMG:  Solving for f_2, Initial residual = 0.0013765, Final residual = 1.71739e-13, No Iterations 1
ExecutionTime = 0.15 s    ClockTime = 0 s

Time = 0.086

GAMG:  Solving for f_0, Initial residual = 0.00598143, Final residual = 2.16476e-12, No Iterations 1
GAMG:  Solving for f_1, Initial residual = 0.00139542, Final residual = 1.05785e-13, No Iterations 1
GAMG:  Solving for f_2, Initial residual = 0.00134479, Final residual = 1.68641e-13, No Iterations 1
ExecutionTime = 0.15 s    ClockTime = 0 s

Time = 0.088

GAMG:  Solving for f_0, Initial residual = 0.00579191, Final residual = 2.25769e-12, No Iterations 1
GAMG:  Solving for f_1, Initial residual = 0.00136485, Final residual = 9.97201e-14, No Iterations 1
GAMG:  Solving for f_2, Initial residual = 0.00131454, Final residual = 1.75024e-13, No Iterations 1
ExecutionTime = 0.15 s    ClockTime = 0 s

Time = 0.09

GAMG:  Solving for f_0, Initial residual = 0.00561263, Final residual = 2.18818e-12, No Iterations 1
GAMG:  Solving for f_1, Initial residual = 0.00133549, Final residual = 1.09446e-13, No Iterations 1
GAMG:  Solving for f_2, Initial residual = 0.00128598, Final residual = 1.78144e-13, No Iterations 1
ExecutionTime = 0.15 s    ClockTime = 0 s

Time = 0.092

GAMG:  Solving for f_0, Initial residual = 0.00544453, Final residual = 2.2269e-12, No Iterations 1
GAMG:  Solving for f_1, Initial residual = 0.00130725, Final residual = 1.07706e-13, No Iterations 1
GAMG:  Solving for f_2, Initial residual = 0.00125877, Final residual = 1.68811e-13, No Iterations 1
ExecutionTime = 0.16 s    ClockTime = 0 s

Time = 0.094

GAMG:  Solving for f_0, Initial residual = 0.00528651, Final residual = 2.07346e-12, No Iterations 1
GAMG:  Solving for f_1, Initial residual = 0.00128013, Final residual = 1.03787e-13, No Iterations 1
GAMG:  Solving for f_2, Initial residual = 0.00123251, Final residual = 1.77828e-13, No Iterations 1
ExecutionTime = 0.16 s    ClockTime = 0 s

Time = 0.096

GAMG:  Solving for f_0, Initial residual = 0.0051315, Final residual = 2.29055e-12, No Iterations 1
GAMG:  Solving for f_1, Initial residual = 0.00125407, Final residual = 1.08881e-13, No Iterations 1
GAMG:  Solving for f_2, Initial residual = 0.00120719, Final residual = 1.71753e-13, No Iterations 1
ExecutionTime = 0.16 s    ClockTime = 0 s

Time = 0.098

GAMG:  Solving for f_0, Initial residual = 0.00497983, Final residual = 2.17642e-12, No Iterations 1
GAMG:  Solving for f_1, Initial residual = 0.00122901, Final residual = 1.10871e-13, No Iterations 1
GAMG:  Solving for f_2, Initial residual = 0.00118311, Final residual = 1.79802e-13, No Iterations 1
ExecutionTime = 0.16 s    ClockTime = 0 s

Time = 0.1

GAMG:  Solving for f_0, Initial residual = 0.00483985, Final residual = 2.10274e-12, No Iterations 1
GAMG:  Solving for f_1, Initial residual = 0.00120524, Final residual = 1.05068e-13, No Iterations 1
GAMG:  Solving for f_2, Initial residual = 0.00116105, Final residual = 1.67795e-13, No Iterations 1
ExecutionTime = 0.17 s    ClockTime = 0 s

Time = 0.102

GAMG:  Solving for f_0, Initial residual = 0.00470845, Final residual = 2.33588e-12, No Iterations 1
GAMG:  Solving for f_1, Initial residual = 0.0011827, Final residual = 1.07989e-13, No Iterations 1
GAMG:  Solving for f_2, Initial residual = 0.00113983, Final residual = 1.79804e-13, No Iterations 1
ExecutionTime = 0.17 s    ClockTime = 0 s

Time = 0.104

GAMG:  Solving for f_0, Initial residual = 0.00459049, Final residual = 2.33201e-12, No Iterations 1
GAMG:  Solving for f_1, Initial residual = 0.00116102, Final residual = 1.02478e-13, No Iterations 1
GAMG:  Solving for f_2, Initial residual = 0.00111959, Final residual = 1.80623e-13, No Iterations 1
ExecutionTime = 0.17 s    ClockTime = 0 s

Time = 0.106

GAMG:  Solving for f_0, Initial residual = 0.00447634, Final residual = 2.17265e-12, No Iterations 1
GAMG:  Solving for f_1, Initial residual = 0.00114067, Final residual = 1.06962e-13, No Iterations 1
GAMG:  Solving for f_2, Initial residual = 0.00109999, Final residual = 1.77482e-13, No Iterations 1
ExecutionTime = 0.17 s    ClockTime = 0 s

Time = 0.108

GAMG:  Solving for f_0, Initial residual = 0.00436457, Final residual = 2.29493e-12, No Iterations 1
GAMG:  Solving for f_1, Initial residual = 0.00112097, Final residual = 1.03625e-13, No Iterations 1
GAMG:  Solving for f_2, Initial residual = 0.00108148, Final residual = 1.70041e-13, No Iterations 1
ExecutionTime = 0.18 s    ClockTime = 0 s

Time = 0.11

GAMG:  Solving for f_0, Initial residual = 0.00425517, Final residual = 2.33243e-12, No Iterations 1
GAMG:  Solving for f_1, Initial residual = 0.00110194, Final residual = 1.16263e-13, No Iterations 1
GAMG:  Solving for f_2, Initial residual = 0.00106384, Final residual = 1.79111e-13, No Iterations 1
ExecutionTime = 0.18 s    ClockTime = 0 s

Time = 0.112

GAMG:  Solving for f_0, Initial residual = 0.00414836, Final residual = 2.3984e-12, No Iterations 1
GAMG:  Solving for f_1, Initial residual = 0.00108352, Final residual = 9.94361e-14, No Iterations 1
GAMG:  Solving for f_2, Initial residual = 0.00104674, Final residual = 1.7232e-13, No Iterations 1
ExecutionTime = 0.18 s    ClockTime = 0 s

Time = 0.114

GAMG:  Solving for f_0, Initial residual = 0.00404687, Final residual = 2.13498e-12, No Iterations 1
GAMG:  Solving for f_1, Initial residual = 0.00106565, Final residual = 1.0895e-13, No Iterations 1
GAMG:  Solving for f_2, Initial residual = 0.00103012, Final residual = 1.75115e-13, No Iterations 1
ExecutionTime = 0.18 s    ClockTime = 0 s

Time = 0.116

GAMG:  Solving for f_0, Initial residual = 0.0039496, Final residual = 2.34381e-12, No Iterations 1
GAMG:  Solving for f_1, Initial residual = 0.00104833, Final residual = 1.09053e-13, No Iterations 1
GAMG:  Solving for f_2, Initial residual = 0.00101426, Final residual = 1.64659e-13, No Iterations 1
ExecutionTime = 0.18 s    ClockTime = 0 s

Time = 0.118

GAMG:  Solving for f_0, Initial residual = 0.00385803, Final residual = 2.35179e-12, No Iterations 1
GAMG:  Solving for f_1, Initial residual = 0.0010318, Final residual = 1.08528e-13, No Iterations 1
GAMG:  Solving for f_2, Initial residual = 0.000998789, Final residual = 1.72419e-13, No Iterations 1
ExecutionTime = 0.18 s    ClockTime = 0 s

Time = 0.12

GAMG:  Solving for f_0, Initial residual = 0.00376953, Final residual = 2.2728e-12, No Iterations 1
GAMG:  Solving for f_1, Initial residual = 0.00101604, Final residual = 1.07684e-13, No Iterations 1
GAMG:  Solving for f_2, Initial residual = 0.000983705, Final residual = 1.71231e-13, No Iterations 1
ExecutionTime = 0.19 s    ClockTime = 0 s

Time = 0.122

GAMG:  Solving for f_0, Initial residual = 0.00368335, Final residual = 2.41099e-12, No Iterations 1
GAMG:  Solving for f_1, Initial residual = 0.00100092, Final residual = 1.12192e-13, No Iterations 1
GAMG:  Solving for f_2, Initial residual = 0.000969013, Final residual = 1.75023e-13, No Iterations 1
ExecutionTime = 0.19 s    ClockTime = 0 s

Time = 0.124

GAMG:  Solving for f_0, Initial residual = 0.00360209, Final residual = 2.34582e-12, No Iterations 1
GAMG:  Solving for f_1, Initial residual = 0.000986364, Final residual = 1.01565e-13, No Iterations 1
GAMG:  Solving for f_2, Initial residual = 0.000954809, Final residual = 1.67852e-13, No Iterations 1
ExecutionTime = 0.19 s    ClockTime = 0 s

Time = 0.126

GAMG:  Solving for f_0, Initial residual = 0.0035248, Final residual = 2.55763e-12, No Iterations 1
GAMG:  Solving for f_1, Initial residual = 0.000972703, Final residual = 1.09544e-13, No Iterations 1
GAMG:  Solving for f_2, Initial residual = 0.000941294, Final residual = 1.71978e-13, No Iterations 1
ExecutionTime = 0.19 s    ClockTime = 0 s

Time = 0.128

GAMG:  Solving for f_0, Initial residual = 0.00344979, Final residual = 2.49195e-12, No Iterations 1
GAMG:  Solving for f_1, Initial residual = 0.00095959, Final residual = 1.03002e-13, No Iterations 1
GAMG:  Solving for f_2, Initial residual = 0.000928226, Final residual = 1.75442e-13, No Iterations 1
ExecutionTime = 0.19 s    ClockTime = 0 s

Time = 0.13

GAMG:  Solving for f_0, Initial residual = 0.00337776, Final residual = 2.35221e-12, No Iterations 1
GAMG:  Solving for f_1, Initial residual = 0.000946801, Final residual = 1.06251e-13, No Iterations 1
GAMG:  Solving for f_2, Initial residual = 0.000915439, Final residual = 1.77907e-13, No Iterations 1
ExecutionTime = 0.19 s    ClockTime = 0 s

Time = 0.132

GAMG:  Solving for f_0, Initial residual = 0.00331013, Final residual = 2.37368e-12, No Iterations 1
GAMG:  Solving for f_1, Initial residual = 0.000934294, Final residual = 1.00642e-13, No Iterations 1
GAMG:  Solving for f_2, Initial residual = 0.000902942, Final residual = 1.77375e-13, No Iterations 1
ExecutionTime = 0.19 s    ClockTime = 0 s

Time = 0.134

GAMG:  Solving for f_0, Initial residual = 0.00324488, Final residual = 2.35072e-12, No Iterations 1
GAMG:  Solving for f_1, Initial residual = 0.00092206, Final residual = 1.10542e-13, No Iterations 1
GAMG:  Solving for f_2, Initial residual = 0.000890726, Final residual = 1.79512e-13, No Iterations 1
ExecutionTime = 0.2 s    ClockTime = 0 s

Time = 0.136

GAMG:  Solving for f_0, Initial residual = 0.00318243, Final residual = 2.63871e-12, No Iterations 1
GAMG:  Solving for f_1, Initial residual = 0.00091009, Final residual = 1.07775e-13, No Iterations 1
GAMG:  Solving for f_2, Initial residual = 0.000878817, Final residual = 1.78312e-13, No Iterations 1
ExecutionTime = 0.2 s    ClockTime = 0 s

Time = 0.138

GAMG:  Solving for f_0, Initial residual = 0.00312131, Final residual = 2.39296e-12, No Iterations 1
GAMG:  Solving for f_1, Initial residual = 0.000898388, Final residual = 1.15152e-13, No Iterations 1
GAMG:  Solving for f_2, Initial residual = 0.000867174, Final residual = 1.82122e-13, No Iterations 1
ExecutionTime = 0.2 s    ClockTime = 0 s

Time = 0.14

GAMG:  Solving for f_0, Initial residual = 0.00306158, Final residual = 2.36934e-12, No Iterations 1
GAMG:  Solving for f_1, Initial residual = 0.000887113, Final residual = 1.06032e-13, No Iterations 1
GAMG:  Solving for f_2, Initial residual = 0.000855856, Final residual = 1.72559e-13, No Iterations 1
ExecutionTime = 0.2 s    ClockTime = 0 s

Time = 0.142

GAMG:  Solving for f_0, Initial residual = 0.00300392, Final residual = 2.62935e-12, No Iterations 1
GAMG:  Solving for f_1, Initial residual = 0.000876193, Final residual = 1.09606e-13, No Iterations 1
GAMG:  Solving for f_2, Initial residual = 0.000844877, Final residual = 1.78038e-13, No Iterations 1
ExecutionTime = 0.2 s    ClockTime = 0 s

Time = 0.144

GAMG:  Solving for f_0, Initial residual = 0.00294803, Final residual = 2.42627e-12, No Iterations 1
GAMG:  Solving for f_1, Initial residual = 0.000865508, Final residual = 1.06827e-13, No Iterations 1
GAMG:  Solving for f_2, Initial residual = 0.000834126, Final residual = 1.7716e-13, No Iterations 1
ExecutionTime = 0.21 s    ClockTime = 0 s

Time = 0.146

GAMG:  Solving for f_0, Initial residual = 0.0028934, Final residual = 2.22205e-12, No Iterations 1
GAMG:  Solving for f_1, Initial residual = 0.000855051, Final residual = 1.10089e-13, No Iterations 1
GAMG:  Solving for f_2, Initial residual = 0.000823734, Final residual = 1.77956e-13, No Iterations 1
ExecutionTime = 0.21 s    ClockTime = 0 s

Time = 0.148

GAMG:  Solving for f_0, Initial residual = 0.00284094, Final residual = 2.55848e-12, No Iterations 1
GAMG:  Solving for f_1, Initial residual = 0.000844802, Final residual = 1.0985e-13, No Iterations 1
GAMG:  Solving for f_2, Initial residual = 0.000813792, Final residual = 1.69698e-13, No Iterations 1
ExecutionTime = 0.21 s    ClockTime = 0 s

Time = 0.15

GAMG:  Solving for f_0, Initial residual = 0.00279005, Final residual = 2.48906e-12, No Iterations 1
GAMG:  Solving for f_1, Initial residual = 0.000834797, Final residual = 1.13115e-13, No Iterations 1
GAMG:  Solving for f_2, Initial residual = 0.000804091, Final residual = 1.79215e-13, No Iterations 1
ExecutionTime = 0.22 s    ClockTime = 0 s

Time = 0.152

GAMG:  Solving for f_0, Initial residual = 0.00274053, Final residual = 2.2529e-12, No Iterations 1
GAMG:  Solving for f_1, Initial residual = 0.000825139, Final residual = 1.07136e-13, No Iterations 1
GAMG:  Solving for f_2, Initial residual = 0.000794709, Final residual = 1.7296e-13, No Iterations 1
ExecutionTime = 0.23 s    ClockTime = 0 s

Time = 0.154

GAMG:  Solving for f_0, Initial residual = 0.00269304, Final residual = 2.39437e-12, No Iterations 1
GAMG:  Solving for f_1, Initial residual = 0.000815686, Final residual = 1.08169e-13, No Iterations 1
GAMG:  Solving for f_2, Initial residual = 0.000785689, Final residual = 1.80474e-13, No Iterations 1
ExecutionTime = 0.23 s    ClockTime = 0 s

Time = 0.156

GAMG:  Solving for f_0, Initial residual = 0.00264716, Final residual = 2.62742e-12, No Iterations 1
GAMG:  Solving for f_1, Initial residual = 0.000806429, Final residual = 1.08564e-13, No Iterations 1
GAMG:  Solving for f_2, Initial residual = 0.00077691, Final residual = 1.80933e-13, No Iterations 1
ExecutionTime = 0.23 s    ClockTime = 0 s

Time = 0.158

GAMG:  Solving for f_0, Initial residual = 0.00260221, Final residual = 2.49609e-12, No Iterations 1
GAMG:  Solving for f_1, Initial residual = 0.000797358, Final residual = 1.14712e-13, No Iterations 1
GAMG:  Solving for f_2, Initial residual = 0.000768287, Final residual = 1.83746e-13, No Iterations 1
ExecutionTime = 0.23 s    ClockTime = 0 s

Time = 0.16

GAMG:  Solving for f_0, Initial residual = 0.00255858, Final residual = 2.76068e-12, No Iterations 1
GAMG:  Solving for f_1, Initial residual = 0.000788659, Final residual = 1.07438e-13, No Iterations 1
GAMG:  Solving for f_2, Initial residual = 0.000759821, Final residual = 1.80837e-13, No Iterations 1
ExecutionTime = 0.23 s    ClockTime = 0 s

Time = 0.162

GAMG:  Solving for f_0, Initial residual = 0.00251619, Final residual = 2.75118e-12, No Iterations 1
GAMG:  Solving for f_1, Initial residual = 0.000780115, Final residual = 1.10071e-13, No Iterations 1
GAMG:  Solving for f_2, Initial residual = 0.000751521, Final residual = 1.81631e-13, No Iterations 1
ExecutionTime = 0.24 s    ClockTime = 0 s

Time = 0.164

GAMG:  Solving for f_0, Initial residual = 0.00247465, Final residual = 2.6956e-12, No Iterations 1
GAMG:  Solving for f_1, Initial residual = 0.000771721, Final residual = 1.11105e-13, No Iterations 1
GAMG:  Solving for f_2, Initial residual = 0.00074338, Final residual = 1.77031e-13, No Iterations 1
ExecutionTime = 0.24 s    ClockTime = 0 s

Time = 0.166

GAMG:  Solving for f_0, Initial residual = 0.00243551, Final residual = 2.80852e-12, No Iterations 1
GAMG:  Solving for f_1, Initial residual = 0.000763485, Final residual = 1.14703e-13, No Iterations 1
GAMG:  Solving for f_2, Initial residual = 0.000735386, Final residual = 1.7816e-13, No Iterations 1
ExecutionTime = 0.24 s    ClockTime = 0 s

Time = 0.168

GAMG:  Solving for f_0, Initial residual = 0.0023977, Final residual = 2.55274e-12, No Iterations 1
GAMG:  Solving for f_1, Initial residual = 0.000755459, Final residual = 1.03558e-13, No Iterations 1
GAMG:  Solving for f_2, Initial residual = 0.000727685, Final residual = 1.81654e-13, No Iterations 1
ExecutionTime = 0.24 s    ClockTime = 0 s

Time = 0.17

GAMG:  Solving for f_0, Initial residual = 0.00236056, Final residual = 2.44994e-12, No Iterations 1
GAMG:  Solving for f_1, Initial residual = 0.000747668, Final residual = 1.14855e-13, No Iterations 1
GAMG:  Solving for f_2, Initial residual = 0.000720139, Final residual = 1.85824e-13, No Iterations 1
ExecutionTime = 0.24 s    ClockTime = 0 s

Time = 0.172

GAMG:  Solving for f_0, Initial residual = 0.0023243, Final residual = 2.63997e-12, No Iterations 1
GAMG:  Solving for f_1, Initial residual = 0.000740023, Final residual = 1.05942e-13, No Iterations 1
GAMG:  Solving for f_2, Initial residual = 0.000712857, Final residual = 1.74447e-13, No Iterations 1
ExecutionTime = 0.25 s    ClockTime = 0 s

Time = 0.174

GAMG:  Solving for f_0, Initial residual = 0.00228935, Final residual = 2.5367e-12, No Iterations 1
GAMG:  Solving for f_1, Initial residual = 0.000732515, Final residual = 1.15006e-13, No Iterations 1
GAMG:  Solving for f_2, Initial residual = 0.000705738, Final residual = 1.83013e-13, No Iterations 1
ExecutionTime = 0.25 s    ClockTime = 0 s

Time = 0.176

GAMG:  Solving for f_0, Initial residual = 0.00225557, Final residual = 2.68087e-12, No Iterations 1
GAMG:  Solving for f_1, Initial residual = 0.000725134, Final residual = 1.09938e-13, No Iterations 1
GAMG:  Solving for f_2, Initial residual = 0.000698745, Final residual = 1.77034e-13, No Iterations 1
ExecutionTime = 0.25 s    ClockTime = 0 s

Time = 0.178

GAMG:  Solving for f_0, Initial residual = 0.00222241, Final residual = 2.48396e-12, No Iterations 1
GAMG:  Solving for f_1, Initial residual = 0.000717982, Final residual = 1.10329e-13, No Iterations 1
GAMG:  Solving for f_2, Initial residual = 0.000691875, Final residual = 1.77145e-13, No Iterations 1
ExecutionTime = 0.25 s    ClockTime = 0 s

Time = 0.18

GAMG:  Solving for f_0, Initial residual = 0.00218984, Final residual = 2.7684e-12, No Iterations 1
GAMG:  Solving for f_1, Initial residual = 0.000710953, Final residual = 1.05892e-13, No Iterations 1
GAMG:  Solving for f_2, Initial residual = 0.000685118, Final residual = 1.77932e-13, No Iterations 1
ExecutionTime = 0.25 s    ClockTime = 0 s

Time = 0.182

GAMG:  Solving for f_0, Initial residual = 0.00215783, Final residual = 2.61755e-12, No Iterations 1
GAMG:  Solving for f_1, Initial residual = 0.000704086, Final residual = 1.1562e-13, No Iterations 1
GAMG:  Solving for f_2, Initial residual = 0.000678472, Final residual = 1.81434e-13, No Iterations 1
ExecutionTime = 0.25 s    ClockTime = 0 s

Time = 0.184

GAMG:  Solving for f_0, Initial residual = 0.00212653, Final residual = 2.4973e-12, No Iterations 1
GAMG:  Solving for f_1, Initial residual = 0.000697433, Final residual = 1.10536e-13, No Iterations 1
GAMG:  Solving for f_2, Initial residual = 0.000671933, Final residual = 1.82224e-13, No Iterations 1
ExecutionTime = 0.26 s    ClockTime = 0 s

Time = 0.186

GAMG:  Solving for f_0, Initial residual = 0.00209637, Final residual = 2.89252e-12, No Iterations 1
GAMG:  Solving for f_1, Initial residual = 0.000690894, Final residual = 1.14474e-13, No Iterations 1
GAMG:  Solving for f_2, Initial residual = 0.000665519, Final residual = 1.82673e-13, No Iterations 1
ExecutionTime = 0.26 s    ClockTime = 0 s

Time = 0.188

GAMG:  Solving for f_0, Initial residual = 0.00206666, Final residual = 2.67813e-12, No Iterations 1
GAMG:  Solving for f_1, Initial residual = 0.00068447, Final residual = 1.10351e-13, No Iterations 1
GAMG:  Solving for f_2, Initial residual = 0.000659276, Final residual = 1.77684e-13, No Iterations 1
ExecutionTime = 0.26 s    ClockTime = 0 s

Time = 0.19

GAMG:  Solving for f_0, Initial residual = 0.00203779, Final residual = 2.58839e-12, No Iterations 1
GAMG:  Solving for f_1, Initial residual = 0.000678189, Final residual = 1.12033e-13, No Iterations 1
GAMG:  Solving for f_2, Initial residual = 0.000653151, Final residual = 1.81868e-13, No Iterations 1
ExecutionTime = 0.26 s    ClockTime = 0 s

Time = 0.192

GAMG:  Solving for f_0, Initial residual = 0.00200997, Final residual = 2.57682e-12, No Iterations 1
GAMG:  Solving for f_1, Initial residual = 0.000672046, Final residual = 1.10809e-13, No Iterations 1
GAMG:  Solving for f_2, Initial residual = 0.000647322, Final residual = 1.81635e-13, No Iterations 1
ExecutionTime = 0.26 s    ClockTime = 0 s

Time = 0.194

GAMG:  Solving for f_0, Initial residual = 0.00198299, Final residual = 2.37622e-12, No Iterations 1
GAMG:  Solving for f_1, Initial residual = 0.000666091, Final residual = 1.09259e-13, No Iterations 1
GAMG:  Solving for f_2, Initial residual = 0.000641598, Final residual = 1.8004e-13, No Iterations 1
ExecutionTime = 0.26 s    ClockTime = 0 s

Time = 0.196

GAMG:  Solving for f_0, Initial residual = 0.00195638, Final residual = 2.71072e-12, No Iterations 1
GAMG:  Solving for f_1, Initial residual = 0.00066024, Final residual = 1.04471e-13, No Iterations 1
GAMG:  Solving for f_2, Initial residual = 0.000635984, Final residual = 1.80145e-13, No Iterations 1
ExecutionTime = 0.26 s    ClockTime = 0 s

Time = 0.198

GAMG:  Solving for f_0, Initial residual = 0.00193018, Final residual = 2.52529e-12, No Iterations 1
GAMG:  Solving for f_1, Initial residual = 0.000654576, Final residual = 1.11976e-13, No Iterations 1
GAMG:  Solving for f_2, Initial residual = 0.000630487, Final residual = 1.85361e-13, No Iterations 1
ExecutionTime = 0.27 s    ClockTime = 0 s

Time = 0.2

GAMG:  Solving for f_0, Initial residual = 0.0019044, Final residual = 2.82926e-12, No Iterations 1
GAMG:  Solving for f_1, Initial residual = 0.000648996, Final residual = 1.13661e-13, No Iterations 1
GAMG:  Solving for f_2, Initial residual = 0.000625068, Final residual = 1.81377e-13, No Iterations 1
ExecutionTime = 0.28 s    ClockTime = 0 s

Time = 0.202

GAMG:  Solving for f_0, Initial residual = 0.00187905, Final residual = 2.86497e-12, No Iterations 1
GAMG:  Solving for f_1, Initial residual = 0.000643497, Final residual = 1.13404e-13, No Iterations 1
GAMG:  Solving for f_2, Initial residual = 0.000619751, Final residual = 1.76704e-13, No Iterations 1
ExecutionTime = 0.28 s    ClockTime = 0 s

Time = 0.204

GAMG:  Solving for f_0, Initial residual = 0.00185432, Final residual = 2.63127e-12, No Iterations 1
GAMG:  Solving for f_1, Initial residual = 0.000638135, Final residual = 1.09904e-13, No Iterations 1
GAMG:  Solving for f_2, Initial residual = 0.000614562, Final residual = 1.79874e-13, No Iterations 1
ExecutionTime = 0.28 s    ClockTime = 0 s

Time = 0.206

GAMG:  Solving for f_0, Initial residual = 0.00183051, Final residual = 2.61906e-12, No Iterations 1
GAMG:  Solving for f_1, Initial residual = 0.000632957, Final residual = 1.13537e-13, No Iterations 1
GAMG:  Solving for f_2, Initial residual = 0.000609449, Final residual = 1.76559e-13, No Iterations 1
ExecutionTime = 0.28 s    ClockTime = 0 s

Time = 0.208

GAMG:  Solving for f_0, Initial residual = 0.00180733, Final residual = 2.57494e-12, No Iterations 1
GAMG:  Solving for f_1, Initial residual = 0.000627871, Final residual = 1.12628e-13, No Iterations 1
GAMG:  Solving for f_2, Initial residual = 0.000604462, Final residual = 1.75973e-13, No Iterations 1
ExecutionTime = 0.28 s    ClockTime = 0 s

Time = 0.21

GAMG:  Solving for f_0, Initial residual = 0.0017847, Final residual = 2.59432e-12, No Iterations 1
GAMG:  Solving for f_1, Initial residual = 0.000622848, Final residual = 1.17563e-13, No Iterations 1
GAMG:  Solving for f_2, Initial residual = 0.000599597, Final residual = 1.76754e-13, No Iterations 1
ExecutionTime = 0.29 s    ClockTime = 0 s

Time = 0.212

GAMG:  Solving for f_0, Initial residual = 0.00176261, Final residual = 2.70934e-12, No Iterations 1
GAMG:  Solving for f_1, Initial residual = 0.000617893, Final residual = 1.11129e-13, No Iterations 1
GAMG:  Solving for f_2, Initial residual = 0.000594831, Final residual = 1.85403e-13, No Iterations 1
ExecutionTime = 0.29 s    ClockTime = 0 s

Time = 0.214

GAMG:  Solving for f_0, Initial residual = 0.00174084, Final residual = 2.84057e-12, No Iterations 1
GAMG:  Solving for f_1, Initial residual = 0.000613017, Final residual = 1.13142e-13, No Iterations 1
GAMG:  Solving for f_2, Initial residual = 0.000590188, Final residual = 1.87901e-13, No Iterations 1
ExecutionTime = 0.29 s    ClockTime = 0 s

Time = 0.216

GAMG:  Solving for f_0, Initial residual = 0.0017195, Final residual = 2.65252e-12, No Iterations 1
GAMG:  Solving for f_1, Initial residual = 0.000608226, Final residual = 1.07675e-13, No Iterations 1
GAMG:  Solving for f_2, Initial residual = 0.000585604, Final residual = 1.79101e-13, No Iterations 1
ExecutionTime = 0.3 s    ClockTime = 0 s

Time = 0.218

GAMG:  Solving for f_0, Initial residual = 0.00169852, Final residual = 2.91192e-12, No Iterations 1
GAMG:  Solving for f_1, Initial residual = 0.0006035, Final residual = 1.12617e-13, No Iterations 1
GAMG:  Solving for f_2, Initial residual = 0.000581075, Final residual = 1.87078e-13, No Iterations 1
ExecutionTime = 0.3 s    ClockTime = 0 s

Time = 0.22

GAMG:  Solving for f_0, Initial residual = 0.00167809, Final residual = 2.80345e-12, No Iterations 1
GAMG:  Solving for f_1, Initial residual = 0.000598838, Final residual = 1.11376e-13, No Iterations 1
GAMG:  Solving for f_2, Initial residual = 0.000576599, Final residual = 1.79292e-13, No Iterations 1
ExecutionTime = 0.3 s    ClockTime = 0 s

Time = 0.222

GAMG:  Solving for f_0, Initial residual = 0.001658, Final residual = 2.77484e-12, No Iterations 1
GAMG:  Solving for f_1, Initial residual = 0.00059425, Final residual = 1.15348e-13, No Iterations 1
GAMG:  Solving for f_2, Initial residual = 0.000572178, Final residual = 1.86932e-13, No Iterations 1
ExecutionTime = 0.3 s    ClockTime = 0 s

Time = 0.224

GAMG:  Solving for f_0, Initial residual = 0.00163819, Final residual = 2.66581e-12, No Iterations 1
GAMG:  Solving for f_1, Initial residual = 0.000589779, Final residual = 1.16715e-13, No Iterations 1
GAMG:  Solving for f_2, Initial residual = 0.000567839, Final residual = 1.87029e-13, No Iterations 1
ExecutionTime = 0.3 s    ClockTime = 0 s

Time = 0.226

GAMG:  Solving for f_0, Initial residual = 0.00161907, Final residual = 2.84589e-12, No Iterations 1
GAMG:  Solving for f_1, Initial residual = 0.00058536, Final residual = 1.10254e-13, No Iterations 1
GAMG:  Solving for f_2, Initial residual = 0.00056357, Final residual = 1.83693e-13, No Iterations 1
ExecutionTime = 0.3 s    ClockTime = 0 s

Time = 0.228

GAMG:  Solving for f_0, Initial residual = 0.00160047, Final residual = 2.80097e-12, No Iterations 1
GAMG:  Solving for f_1, Initial residual = 0.000581044, Final residual = 1.09333e-13, No Iterations 1
GAMG:  Solving for f_2, Initial residual = 0.000559358, Final residual = 1.78636e-13, No Iterations 1
ExecutionTime = 0.31 s    ClockTime = 0 s

Time = 0.23

GAMG:  Solving for f_0, Initial residual = 0.00158214, Final residual = 2.72367e-12, No Iterations 1
GAMG:  Solving for f_1, Initial residual = 0.000576815, Final residual = 1.12983e-13, No Iterations 1
GAMG:  Solving for f_2, Initial residual = 0.0005552, Final residual = 1.8904e-13, No Iterations 1
ExecutionTime = 0.31 s    ClockTime = 0 s

Time = 0.232

GAMG:  Solving for f_0, Initial residual = 0.00156444, Final residual = 2.93658e-12, No Iterations 1
GAMG:  Solving for f_1, Initial residual = 0.00057264, Final residual = 1.04221e-13, No Iterations 1
GAMG:  Solving for f_2, Initial residual = 0.000551094, Final residual = 1.81229e-13, No Iterations 1
ExecutionTime = 0.31 s    ClockTime = 0 s

Time = 0.234

GAMG:  Solving for f_0, Initial residual = 0.00154697, Final residual = 3.05302e-12, No Iterations 1
GAMG:  Solving for f_1, Initial residual = 0.000568516, Final residual = 1.15063e-13, No Iterations 1
GAMG:  Solving for f_2, Initial residual = 0.00054704, Final residual = 1.79603e-13, No Iterations 1
ExecutionTime = 0.31 s    ClockTime = 0 s

Time = 0.236

GAMG:  Solving for f_0, Initial residual = 0.00152973, Final residual = 2.8139e-12, No Iterations 1
GAMG:  Solving for f_1, Initial residual = 0.000564465, Final residual = 1.1545e-13, No Iterations 1
GAMG:  Solving for f_2, Initial residual = 0.000543055, Final residual = 1.83136e-13, No Iterations 1
ExecutionTime = 0.31 s    ClockTime = 0 s

Time = 0.238

GAMG:  Solving for f_0, Initial residual = 0.00151271, Final residual = 2.62277e-12, No Iterations 1
GAMG:  Solving for f_1, Initial residual = 0.000560493, Final residual = 1.1322e-13, No Iterations 1
GAMG:  Solving for f_2, Initial residual = 0.000539149, Final residual = 1.90114e-13, No Iterations 1
ExecutionTime = 0.31 s    ClockTime = 0 s

Time = 0.24

GAMG:  Solving for f_0, Initial residual = 0.00149598, Final residual = 2.90122e-12, No Iterations 1
GAMG:  Solving for f_1, Initial residual = 0.00055657, Final residual = 1.10005e-13, No Iterations 1
GAMG:  Solving for f_2, Initial residual = 0.000535347, Final residual = 1.81937e-13, No Iterations 1
ExecutionTime = 0.32 s    ClockTime = 0 s

Time = 0.242

GAMG:  Solving for f_0, Initial residual = 0.00147965, Final residual = 3.14779e-12, No Iterations 1
GAMG:  Solving for f_1, Initial residual = 0.000552692, Final residual = 1.15958e-13, No Iterations 1
GAMG:  Solving for f_2, Initial residual = 0.0005316, Final residual = 1.84094e-13, No Iterations 1
ExecutionTime = 0.32 s    ClockTime = 0 s

Time = 0.244

GAMG:  Solving for f_0, Initial residual = 0.0014637, Final residual = 2.77762e-12, No Iterations 1
GAMG:  Solving for f_1, Initial residual = 0.000548855, Final residual = 1.09135e-13, No Iterations 1
GAMG:  Solving for f_2, Initial residual = 0.000527897, Final residual = 1.76939e-13, No Iterations 1
ExecutionTime = 0.32 s    ClockTime = 0 s

Time = 0.246

GAMG:  Solving for f_0, Initial residual = 0.00144795, Final residual = 2.73182e-12, No Iterations 1
GAMG:  Solving for f_1, Initial residual = 0.000545061, Final residual = 1.10829e-13, No Iterations 1
GAMG:  Solving for f_2, Initial residual = 0.000524237, Final residual = 1.82201e-13, No Iterations 1
ExecutionTime = 0.32 s    ClockTime = 0 s

Time = 0.248

GAMG:  Solving for f_0, Initial residual = 0.00143256, Final residual = 2.99518e-12, No Iterations 1
GAMG:  Solving for f_1, Initial residual = 0.000541312, Final residual = 1.099e-13, No Iterations 1
GAMG:  Solving for f_2, Initial residual = 0.00052062, Final residual = 1.82634e-13, No Iterations 1
ExecutionTime = 0.32 s    ClockTime = 0 s

Time = 0.25

GAMG:  Solving for f_0, Initial residual = 0.00141754, Final residual = 3.1287e-12, No Iterations 1
GAMG:  Solving for f_1, Initial residual = 0.000537607, Final residual = 1.18816e-13, No Iterations 1
GAMG:  Solving for f_2, Initial residual = 0.000517045, Final residual = 1.80995e-13, No Iterations 1
ExecutionTime = 0.33 s    ClockTime = 0 s

Time = 0.252

GAMG:  Solving for f_0, Initial residual = 0.00140274, Final residual = 2.70784e-12, No Iterations 1
GAMG:  Solving for f_1, Initial residual = 0.000533975, Final residual = 1.10666e-13, No Iterations 1
GAMG:  Solving for f_2, Initial residual = 0.000513512, Final residual = 1.82464e-13, No Iterations 1
ExecutionTime = 0.33 s    ClockTime = 0 s

Time = 0.254

GAMG:  Solving for f_0, Initial residual = 0.00138813, Final residual = 2.77595e-12, No Iterations 1
GAMG:  Solving for f_1, Initial residual = 0.000530417, Final residual = 1.16306e-13, No Iterations 1
GAMG:  Solving for f_2, Initial residual = 0.000510034, Final residual = 1.78056e-13, No Iterations 1
ExecutionTime = 0.33 s    ClockTime = 0 s

Time = 0.256

GAMG:  Solving for f_0, Initial residual = 0.00137369, Final residual = 3.08936e-12, No Iterations 1
GAMG:  Solving for f_1, Initial residual = 0.0005269, Final residual = 1.14063e-13, No Iterations 1
GAMG:  Solving for f_2, Initial residual = 0.000506601, Final residual = 1.79176e-13, No Iterations 1
ExecutionTime = 0.34 s    ClockTime = 0 s

Time = 0.258

GAMG:  Solving for f_0, Initial residual = 0.0013596, Final residual = 2.58526e-12, No Iterations 1
GAMG:  Solving for f_1, Initial residual = 0.000523423, Final residual = 1.17737e-13, No Iterations 1
GAMG:  Solving for f_2, Initial residual = 0.000503205, Final residual = 1.80643e-13, No Iterations 1
ExecutionTime = 0.34 s    ClockTime = 0 s

Time = 0.26

GAMG:  Solving for f_0, Initial residual = 0.00134574, Final residual = 2.83353e-12, No Iterations 1
GAMG:  Solving for f_1, Initial residual = 0.000519985, Final residual = 1.14834e-13, No Iterations 1
GAMG:  Solving for f_2, Initial residual = 0.00049988, Final residual = 1.77956e-13, No Iterations 1
ExecutionTime = 0.34 s    ClockTime = 0 s

Time = 0.262

GAMG:  Solving for f_0, Initial residual = 0.00133215, Final residual = 2.75437e-12, No Iterations 1
GAMG:  Solving for f_1, Initial residual = 0.000516613, Final residual = 1.18839e-13, No Iterations 1
GAMG:  Solving for f_2, Initial residual = 0.000496653, Final residual = 1.85658e-13, No Iterations 1
ExecutionTime = 0.34 s    ClockTime = 0 s

Time = 0.264

GAMG:  Solving for f_0, Initial residual = 0.00131876, Final residual = 3.06889e-12, No Iterations 1
GAMG:  Solving for f_1, Initial residual = 0.000513306, Final residual = 1.14614e-13, No Iterations 1
GAMG:  Solving for f_2, Initial residual = 0.000493468, Final residual = 1.81584e-13, No Iterations 1
ExecutionTime = 0.34 s    ClockTime = 0 s

Time = 0.266

GAMG:  Solving for f_0, Initial residual = 0.00130561, Final residual = 2.67763e-12, No Iterations 1
GAMG:  Solving for f_1, Initial residual = 0.000510035, Final residual = 1.18623e-13, No Iterations 1
GAMG:  Solving for f_2, Initial residual = 0.000490316, Final residual = 1.82361e-13, No Iterations 1
ExecutionTime = 0.34 s    ClockTime = 0 s

Time = 0.268

GAMG:  Solving for f_0, Initial residual = 0.00129275, Final residual = 2.87752e-12, No Iterations 1
GAMG:  Solving for f_1, Initial residual = 0.0005068, Final residual = 1.13075e-13, No Iterations 1
GAMG:  Solving for f_2, Initial residual = 0.000487255, Final residual = 1.78629e-13, No Iterations 1
ExecutionTime = 0.34 s    ClockTime = 0 s

Time = 0.27

GAMG:  Solving for f_0, Initial residual = 0.00128012, Final residual = 2.79798e-12, No Iterations 1
GAMG:  Solving for f_1, Initial residual = 0.000503631, Final residual = 1.16426e-13, No Iterations 1
GAMG:  Solving for f_2, Initial residual = 0.000484226, Final residual = 1.8912e-13, No Iterations 1
ExecutionTime = 0.35 s    ClockTime = 0 s

Time = 0.272

GAMG:  Solving for f_0, Initial residual = 0.00126785, Final residual = 2.89947e-12, No Iterations 1
GAMG:  Solving for f_1, Initial residual = 0.000500496, Final residual = 1.12521e-13, No Iterations 1
GAMG:  Solving for f_2, Initial residual = 0.000481227, Final residual = 1.82957e-13, No Iterations 1
ExecutionTime = 0.35 s    ClockTime = 0 s

Time = 0.274

GAMG:  Solving for f_0, Initial residual = 0.00125577, Final residual = 3.0506e-12, No Iterations 1
GAMG:  Solving for f_1, Initial residual = 0.000497394, Final residual = 1.15215e-13, No Iterations 1
GAMG:  Solving for f_2, Initial residual = 0.000478255, Final residual = 1.88943e-13, No Iterations 1
ExecutionTime = 0.35 s    ClockTime = 0 s

Time = 0.276

GAMG:  Solving for f_0, Initial residual = 0.00124391, Final residual = 2.72333e-12, No Iterations 1
GAMG:  Solving for f_1, Initial residual = 0.000494375, Final residual = 1.09324e-13, No Iterations 1
GAMG:  Solving for f_2, Initial residual = 0.000475309, Final residual = 1.83813e-13, No Iterations 1
ExecutionTime = 0.35 s    ClockTime = 0 s

Time = 0.278

GAMG:  Solving for f_0, Initial residual = 0.00123234, Final residual = 2.92408e-12, No Iterations 1
GAMG:  Solving for f_1, Initial residual = 0.000491409, Final residual = 1.21272e-13, No Iterations 1
GAMG:  Solving for f_2, Initial residual = 0.000472394, Final residual = 1.79027e-13, No Iterations 1
ExecutionTime = 0.35 s    ClockTime = 0 s

Time = 0.28

GAMG:  Solving for f_0, Initial residual = 0.00122092, Final residual = 3.10863e-12, No Iterations 1
GAMG:  Solving for f_1, Initial residual = 0.00048847, Final residual = 1.13724e-13, No Iterations 1
GAMG:  Solving for f_2, Initial residual = 0.000469508, Final residual = 1.86756e-13, No Iterations 1
ExecutionTime = 0.35 s    ClockTime = 0 s

Time = 0.282

GAMG:  Solving for f_0, Initial residual = 0.00120979, Final residual = 2.89629e-12, No Iterations 1
GAMG:  Solving for f_1, Initial residual = 0.000485558, Final residual = 1.19068e-13, No Iterations 1
GAMG:  Solving for f_2, Initial residual = 0.00046665, Final residual = 1.84401e-13, No Iterations 1
ExecutionTime = 0.36 s    ClockTime = 0 s

Time = 0.284

GAMG:  Solving for f_0, Initial residual = 0.00119877, Final residual = 2.86575e-12, No Iterations 1
GAMG:  Solving for f_1, Initial residual = 0.000482672, Final residual = 1.20115e-13, No Iterations 1
GAMG:  Solving for f_2, Initial residual = 0.000463822, Final residual = 1.84829e-13, No Iterations 1
ExecutionTime = 0.36 s    ClockTime = 0 s

Time = 0.286

GAMG:  Solving for f_0, Initial residual = 0.00118788, Final residual = 3.00093e-12, No Iterations 1
GAMG:  Solving for f_1, Initial residual = 0.000479813, Final residual = 1.1752e-13, No Iterations 1
GAMG:  Solving for f_2, Initial residual = 0.000461058, Final residual = 1.86999e-13, No Iterations 1
ExecutionTime = 0.36 s    ClockTime = 0 s

Time = 0.288

GAMG:  Solving for f_0, Initial residual = 0.0011771, Final residual = 2.88741e-12, No Iterations 1
GAMG:  Solving for f_1, Initial residual = 0.000476981, Final residual = 1.23533e-13, No Iterations 1
GAMG:  Solving for f_2, Initial residual = 0.000458336, Final residual = 1.72448e-13, No Iterations 1
ExecutionTime = 0.36 s    ClockTime = 0 s

Time = 0.29

GAMG:  Solving for f_0, Initial residual = 0.00116643, Final residual = 3.2055e-12, No Iterations 1
GAMG:  Solving for f_1, Initial residual = 0.000474201, Final residual = 1.23919e-13, No Iterations 1
GAMG:  Solving for f_2, Initial residual = 0.000455703, Final residual = 1.84024e-13, No Iterations 1
ExecutionTime = 0.36 s    ClockTime = 0 s

Time = 0.292

GAMG:  Solving for f_0, Initial residual = 0.00115589, Final residual = 2.80931e-12, No Iterations 1
GAMG:  Solving for f_1, Initial residual = 0.000471458, Final residual = 1.12372e-13, No Iterations 1
GAMG:  Solving for f_2, Initial residual = 0.000453112, Final residual = 1.86195e-13, No Iterations 1
ExecutionTime = 0.36 s    ClockTime = 0 s

Time = 0.294

GAMG:  Solving for f_0, Initial residual = 0.00114551, Final residual = 3.11119e-12, No Iterations 1
GAMG:  Solving for f_1, Initial residual = 0.00046874, Final residual = 1.23034e-13, No Iterations 1
GAMG:  Solving for f_2, Initial residual = 0.000450541, Final residual = 1.88367e-13, No Iterations 1
ExecutionTime = 0.37 s    ClockTime = 0 s

Time = 0.296

GAMG:  Solving for f_0, Initial residual = 0.00113535, Final residual = 2.59763e-12, No Iterations 1
GAMG:  Solving for f_1, Initial residual = 0.000466049, Final residual = 1.24415e-13, No Iterations 1
GAMG:  Solving for f_2, Initial residual = 0.000447991, Final residual = 1.91586e-13, No Iterations 1
ExecutionTime = 0.37 s    ClockTime = 0 s

Time = 0.298

GAMG:  Solving for f_0, Initial residual = 0.00112539, Final residual = 2.81647e-12, No Iterations 1
GAMG:  Solving for f_1, Initial residual = 0.000463383, Final residual = 1.32104e-13, No Iterations 1
GAMG:  Solving for f_2, Initial residual = 0.000445464, Final residual = 1.9376e-13, No Iterations 1
ExecutionTime = 0.37 s    ClockTime = 0 s

Time = 0.3

GAMG:  Solving for f_0, Initial residual = 0.00111561, Final residual = 3.08569e-12, No Iterations 1
GAMG:  Solving for f_1, Initial residual = 0.000460741, Final residual = 1.23528e-13, No Iterations 1
GAMG:  Solving for f_2, Initial residual = 0.00044296, Final residual = 1.83712e-13, No Iterations 1
ExecutionTime = 0.38 s    ClockTime = 0 s

Time = 0.302

GAMG:  Solving for f_0, Initial residual = 0.00110595, Final residual = 3.1884e-12, No Iterations 1
GAMG:  Solving for f_1, Initial residual = 0.000458123, Final residual = 1.34875e-13, No Iterations 1
GAMG:  Solving for f_2, Initial residual = 0.000440479, Final residual = 1.8239e-13, No Iterations 1
ExecutionTime = 0.38 s    ClockTime = 0 s

Time = 0.304

GAMG:  Solving for f_0, Initial residual = 0.00109638, Final residual = 2.907e-12, No Iterations 1
GAMG:  Solving for f_1, Initial residual = 0.000455574, Final residual = 1.26624e-13, No Iterations 1
GAMG:  Solving for f_2, Initial residual = 0.00043802, Final residual = 1.91554e-13, No Iterations 1
ExecutionTime = 0.38 s    ClockTime = 0 s

Time = 0.306

GAMG:  Solving for f_0, Initial residual = 0.00108691, Final residual = 3.11001e-12, No Iterations 1
GAMG:  Solving for f_1, Initial residual = 0.00045306, Final residual = 1.33992e-13, No Iterations 1
GAMG:  Solving for f_2, Initial residual = 0.000435583, Final residual = 1.98277e-13, No Iterations 1
ExecutionTime = 0.38 s    ClockTime = 0 s

Time = 0.308

GAMG:  Solving for f_0, Initial residual = 0.0010776, Final residual = 2.84477e-12, No Iterations 1
GAMG:  Solving for f_1, Initial residual = 0.000450569, Final residual = 1.35712e-13, No Iterations 1
GAMG:  Solving for f_2, Initial residual = 0.000433168, Final residual = 1.90312e-13, No Iterations 1
ExecutionTime = 0.38 s    ClockTime = 0 s

Time = 0.31

GAMG:  Solving for f_0, Initial residual = 0.00106845, Final residual = 2.94753e-12, No Iterations 1
GAMG:  Solving for f_1, Initial residual = 0.000448123, Final residual = 1.39762e-13, No Iterations 1
GAMG:  Solving for f_2, Initial residual = 0.000430797, Final residual = 1.9879e-13, No Iterations 1
ExecutionTime = 0.39 s    ClockTime = 0 s

Time = 0.312

GAMG:  Solving for f_0, Initial residual = 0.00105939, Final residual = 2.93311e-12, No Iterations 1
GAMG:  Solving for f_1, Initial residual = 0.00044571, Final residual = 1.39488e-13, No Iterations 1
GAMG:  Solving for f_2, Initial residual = 0.00042846, Final residual = 1.91169e-13, No Iterations 1
ExecutionTime = 0.39 s    ClockTime = 0 s

Time = 0.314

GAMG:  Solving for f_0, Initial residual = 0.00105043, Final residual = 2.90187e-12, No Iterations 1
GAMG:  Solving for f_1, Initial residual = 0.000443322, Final residual = 1.45208e-13, No Iterations 1
GAMG:  Solving for f_2, Initial residual = 0.000426141, Final residual = 2.00003e-13, No Iterations 1
ExecutionTime = 0.39 s    ClockTime = 0 s

Time = 0.316

GAMG:  Solving for f_0, Initial residual = 0.00104155, Final residual = 2.83698e-12, No Iterations 1
GAMG:  Solving for f_1, Initial residual = 0.000440955, Final residual = 1.47268e-13, No Iterations 1
GAMG:  Solving for f_2, Initial residual = 0.000423853, Final residual = 1.96227e-13, No Iterations 1
ExecutionTime = 0.39 s    ClockTime = 0 s

Time = 0.318

GAMG:  Solving for f_0, Initial residual = 0.00103276, Final residual = 2.92318e-12, No Iterations 1
GAMG:  Solving for f_1, Initial residual = 0.000438607, Final residual = 1.54996e-13, No Iterations 1
GAMG:  Solving for f_2, Initial residual = 0.000421598, Final residual = 2.05069e-13, No Iterations 1
ExecutionTime = 0.39 s    ClockTime = 0 s

Time = 0.32

GAMG:  Solving for f_0, Initial residual = 0.00102412, Final residual = 2.7741e-12, No Iterations 1
GAMG:  Solving for f_1, Initial residual = 0.000436276, Final residual = 1.54726e-13, No Iterations 1
GAMG:  Solving for f_2, Initial residual = 0.000419361, Final residual = 2.02344e-13, No Iterations 1
ExecutionTime = 0.39 s    ClockTime = 0 s

Time = 0.322

GAMG:  Solving for f_0, Initial residual = 0.00101593, Final residual = 3.14638e-12, No Iterations 1
GAMG:  Solving for f_1, Initial residual = 0.000433962, Final residual = 1.65463e-13, No Iterations 1
GAMG:  Solving for f_2, Initial residual = 0.000417156, Final residual = 2.06283e-13, No Iterations 1
ExecutionTime = 0.39 s    ClockTime = 0 s

Time = 0.324

GAMG:  Solving for f_0, Initial residual = 0.00100785, Final residual = 2.89615e-12, No Iterations 1
GAMG:  Solving for f_1, Initial residual = 0.000431665, Final residual = 1.6386e-13, No Iterations 1
GAMG:  Solving for f_2, Initial residual = 0.000414969, Final residual = 2.03556e-13, No Iterations 1
ExecutionTime = 0.4 s    ClockTime = 0 s

Time = 0.326

GAMG:  Solving for f_0, Initial residual = 0.000999918, Final residual = 3.06677e-12, No Iterations 1
GAMG:  Solving for f_1, Initial residual = 0.000429412, Final residual = 1.8262e-13, No Iterations 1
GAMG:  Solving for f_2, Initial residual = 0.0004128, Final residual = 2.16627e-13, No Iterations 1
ExecutionTime = 0.4 s    ClockTime = 0 s

Time = 0.328

GAMG:  Solving for f_0, Initial residual = 0.000992133, Final residual = 3.28818e-12, No Iterations 1
GAMG:  Solving for f_1, Initial residual = 0.000427185, Final residual = 1.87702e-13, No Iterations 1
GAMG:  Solving for f_2, Initial residual = 0.000410658, Final residual = 2.11795e-13, No Iterations 1
ExecutionTime = 0.4 s    ClockTime = 0 s

Time = 0.33

GAMG:  Solving for f_0, Initial residual = 0.000984417, Final residual = 3.29053e-12, No Iterations 1
GAMG:  Solving for f_1, Initial residual = 0.000424977, Final residual = 1.96797e-13, No Iterations 1
GAMG:  Solving for f_2, Initial residual = 0.000408559, Final residual = 2.10824e-13, No Iterations 1
ExecutionTime = 0.4 s    ClockTime = 0 s

Time = 0.332

GAMG:  Solving for f_0, Initial residual = 0.000976771, Final residual = 3.07333e-12, No Iterations 1
GAMG:  Solving for f_1, Initial residual = 0.000422787, Final residual = 2.06567e-13, No Iterations 1
GAMG:  Solving for f_2, Initial residual = 0.000406477, Final residual = 2.14421e-13, No Iterations 1
ExecutionTime = 0.4 s    ClockTime = 0 s

Time = 0.334

GAMG:  Solving for f_0, Initial residual = 0.000969192, Final residual = 2.82201e-12, No Iterations 1
GAMG:  Solving for f_1, Initial residual = 0.000420648, Final residual = 2.21361e-13, No Iterations 1
GAMG:  Solving for f_2, Initial residual = 0.00040441, Final residual = 2.25406e-13, No Iterations 1
ExecutionTime = 0.4 s    ClockTime = 0 s

Time = 0.336

GAMG:  Solving for f_0, Initial residual = 0.000961681, Final residual = 3.196e-12, No Iterations 1
GAMG:  Solving for f_1, Initial residual = 0.000418539, Final residual = 2.3349e-13, No Iterations 1
GAMG:  Solving for f_2, Initial residual = 0.000402358, Final residual = 2.24437e-13, No Iterations 1
ExecutionTime = 0.4 s    ClockTime = 0 s

Time = 0.338

GAMG:  Solving for f_0, Initial residual = 0.000954237, Final residual = 3.07976e-12, No Iterations 1
GAMG:  Solving for f_1, Initial residual = 0.000416456, Final residual = 2.47302e-13, No Iterations 1
GAMG:  Solving for f_2, Initial residual = 0.000400337, Final residual = 2.34727e-13, No Iterations 1
ExecutionTime = 0.41 s    ClockTime = 0 s

Time = 0.34

GAMG:  Solving for f_0, Initial residual = 0.00094691, Final residual = 3.2004e-12, No Iterations 1
GAMG:  Solving for f_1, Initial residual = 0.000414388, Final residual = 2.64472e-13, No Iterations 1
GAMG:  Solving for f_2, Initial residual = 0.000398342, Final residual = 2.36928e-13, No Iterations 1
ExecutionTime = 0.41 s    ClockTime = 0 s

Time = 0.342

GAMG:  Solving for f_0, Initial residual = 0.000939662, Final residual = 2.93146e-12, No Iterations 1
GAMG:  Solving for f_1, Initial residual = 0.000412346, Final residual = 2.81989e-13, No Iterations 1
GAMG:  Solving for f_2, Initial residual = 0.000396371, Final residual = 2.53922e-13, No Iterations 1
ExecutionTime = 0.41 s    ClockTime = 0 s

Time = 0.344

GAMG:  Solving for f_0, Initial residual = 0.000932478, Final residual = 3.06909e-12, No Iterations 1
GAMG:  Solving for f_1, Initial residual = 0.000410323, Final residual = 3.00858e-13, No Iterations 1
GAMG:  Solving for f_2, Initial residual = 0.000394436, Final residual = 2.50846e-13, No Iterations 1
ExecutionTime = 0.41 s    ClockTime = 0 s

Time = 0.346

GAMG:  Solving for f_0, Initial residual = 0.000925357, Final residual = 2.91844e-12, No Iterations 1
GAMG:  Solving for f_1, Initial residual = 0.000408314, Final residual = 3.2879e-13, No Iterations 1
GAMG:  Solving for f_2, Initial residual = 0.000392539, Final residual = 2.63276e-13, No Iterations 1
ExecutionTime = 0.41 s    ClockTime = 0 s

Time = 0.348

GAMG:  Solving for f_0, Initial residual = 0.000918362, Final residual = 3.0732e-12, No Iterations 1
GAMG:  Solving for f_1, Initial residual = 0.000406321, Final residual = 3.46683e-13, No Iterations 1
GAMG:  Solving for f_2, Initial residual = 0.000390657, Final residual = 2.75715e-13, No Iterations 1
ExecutionTime = 0.41 s    ClockTime = 0 s

Time = 0.35

GAMG:  Solving for f_0, Initial residual = 0.000911506, Final residual = 3.2961e-12, No Iterations 1
GAMG:  Solving for f_1, Initial residual = 0.000404348, Final residual = 3.79013e-13, No Iterations 1
GAMG:  Solving for f_2, Initial residual = 0.000388788, Final residual = 2.84283e-13, No Iterations 1
ExecutionTime = 0.42 s    ClockTime = 0 s

Time = 0.352

GAMG:  Solving for f_0, Initial residual = 0.000904735, Final residual = 2.97523e-12, No Iterations 1
GAMG:  Solving for f_1, Initial residual = 0.00040239, Final residual = 4.11702e-13, No Iterations 1
GAMG:  Solving for f_2, Initial residual = 0.000386933, Final residual = 2.93211e-13, No Iterations 1
ExecutionTime = 0.42 s    ClockTime = 0 s

Time = 0.354

GAMG:  Solving for f_0, Initial residual = 0.00089802, Final residual = 3.14729e-12, No Iterations 1
GAMG:  Solving for f_1, Initial residual = 0.000400448, Final residual = 4.46429e-13, No Iterations 1
GAMG:  Solving for f_2, Initial residual = 0.000385092, Final residual = 3.12028e-13, No Iterations 1
ExecutionTime = 0.43 s    ClockTime = 0 s

Time = 0.356

GAMG:  Solving for f_0, Initial residual = 0.000891352, Final residual = 3.11523e-12, No Iterations 1
GAMG:  Solving for f_1, Initial residual = 0.000398534, Final residual = 4.77153e-13, No Iterations 1
GAMG:  Solving for f_2, Initial residual = 0.000383264, Final residual = 3.16735e-13, No Iterations 1
ExecutionTime = 0.43 s    ClockTime = 0 s

Time = 0.358

GAMG:  Solving for f_0, Initial residual = 0.000884725, Final residual = 3.27043e-12, No Iterations 1
GAMG:  Solving for f_1, Initial residual = 0.000396647, Final residual = 5.15289e-13, No Iterations 1
GAMG:  Solving for f_2, Initial residual = 0.000381447, Final residual = 3.49701e-13, No Iterations 1
ExecutionTime = 0.43 s    ClockTime = 0 s

Time = 0.36

GAMG:  Solving for f_0, Initial residual = 0.000878144, Final residual = 2.82924e-12, No Iterations 1
GAMG:  Solving for f_1, Initial residual = 0.000394774, Final residual = 5.67904e-13, No Iterations 1
GAMG:  Solving for f_2, Initial residual = 0.00037965, Final residual = 3.56895e-13, No Iterations 1
ExecutionTime = 0.43 s    ClockTime = 0 s

Time = 0.362

GAMG:  Solving for f_0, Initial residual = 0.000871678, Final residual = 3.01848e-12, No Iterations 1
GAMG:  Solving for f_1, Initial residual = 0.000392922, Final residual = 6.16187e-13, No Iterations 1
GAMG:  Solving for f_2, Initial residual = 0.000377882, Final residual = 3.68335e-13, No Iterations 1
ExecutionTime = 0.43 s    ClockTime = 0 s

Time = 0.364

GAMG:  Solving for f_0, Initial residual = 0.000865305, Final residual = 3.29325e-12, No Iterations 1
GAMG:  Solving for f_1, Initial residual = 0.000391091, Final residual = 6.58451e-13, No Iterations 1
GAMG:  Solving for f_2, Initial residual = 0.00037614, Final residual = 3.96403e-13, No Iterations 1
ExecutionTime = 0.43 s    ClockTime = 0 s

Time = 0.366

GAMG:  Solving for f_0, Initial residual = 0.000859048, Final residual = 3.15856e-12, No Iterations 1
GAMG:  Solving for f_1, Initial residual = 0.00038927, Final residual = 7.26646e-13, No Iterations 1
GAMG:  Solving for f_2, Initial residual = 0.000374411, Final residual = 4.22015e-13, No Iterations 1
ExecutionTime = 0.43 s    ClockTime = 0 s

Time = 0.368

GAMG:  Solving for f_0, Initial residual = 0.000852853, Final residual = 3.09203e-12, No Iterations 1
GAMG:  Solving for f_1, Initial residual = 0.000387462, Final residual = 7.81426e-13, No Iterations 1
GAMG:  Solving for f_2, Initial residual = 0.000372695, Final residual = 4.38798e-13, No Iterations 1
ExecutionTime = 0.44 s    ClockTime = 0 s

Time = 0.37

GAMG:  Solving for f_0, Initial residual = 0.000846711, Final residual = 3.12798e-12, No Iterations 1
GAMG:  Solving for f_1, Initial residual = 0.000385667, Final residual = 8.54087e-13, No Iterations 1
GAMG:  Solving for f_2, Initial residual = 0.00037099, Final residual = 4.77187e-13, No Iterations 1
ExecutionTime = 0.44 s    ClockTime = 0 s

Time = 0.372

GAMG:  Solving for f_0, Initial residual = 0.000840619, Final residual = 3.23236e-12, No Iterations 1
GAMG:  Solving for f_1, Initial residual = 0.000383889, Final residual = 9.26126e-13, No Iterations 1
GAMG:  Solving for f_2, Initial residual = 0.000369298, Final residual = 5.03563e-13, No Iterations 1
ExecutionTime = 0.44 s    ClockTime = 0 s

Time = 0.374

GAMG:  Solving for f_0, Initial residual = 0.000834578, Final residual = 3.1315e-12, No Iterations 1
GAMG:  Solving for f_1, Initial residual = 0.000382137, Final residual = 1.00058e-12, No Iterations 1
GAMG:  Solving for f_2, Initial residual = 0.000367618, Final residual = 5.31374e-13, No Iterations 1
ExecutionTime = 0.44 s    ClockTime = 0 s

Time = 0.376

GAMG:  Solving for f_0, Initial residual = 0.000828661, Final residual = 2.94491e-12, No Iterations 1
GAMG:  Solving for f_1, Initial residual = 0.000380398, Final residual = 1.08822e-12, No Iterations 1
GAMG:  Solving for f_2, Initial residual = 0.000365949, Final residual = 5.63812e-13, No Iterations 1
ExecutionTime = 0.44 s    ClockTime = 0 s

Time = 0.378

GAMG:  Solving for f_0, Initial residual = 0.000822919, Final residual = 2.94654e-12, No Iterations 1
GAMG:  Solving for f_1, Initial residual = 0.000378687, Final residual = 1.18436e-12, No Iterations 1
GAMG:  Solving for f_2, Initial residual = 0.00036429, Final residual = 6.11513e-13, No Iterations 1
ExecutionTime = 0.44 s    ClockTime = 0 s

Time = 0.38

GAMG:  Solving for f_0, Initial residual = 0.000817265, Final residual = 3.17098e-12, No Iterations 1
GAMG:  Solving for f_1, Initial residual = 0.000376993, Final residual = 1.27719e-12, No Iterations 1
GAMG:  Solving for f_2, Initial residual = 0.000362641, Final residual = 6.53214e-13, No Iterations 1
ExecutionTime = 0.45 s    ClockTime = 0 s

Time = 0.382

GAMG:  Solving for f_0, Initial residual = 0.000811726, Final residual = 3.18986e-12, No Iterations 1
GAMG:  Solving for f_1, Initial residual = 0.000375317, Final residual = 1.38392e-12, No Iterations 1
GAMG:  Solving for f_2, Initial residual = 0.000361, Final residual = 6.97422e-13, No Iterations 1
ExecutionTime = 0.45 s    ClockTime = 0 s

Time = 0.384

GAMG:  Solving for f_0, Initial residual = 0.000806244, Final residual = 3.34602e-12, No Iterations 1
GAMG:  Solving for f_1, Initial residual = 0.000373659, Final residual = 1.50153e-12, No Iterations 1
GAMG:  Solving for f_2, Initial residual = 0.000359371, Final residual = 7.3882e-13, No Iterations 1
ExecutionTime = 0.45 s    ClockTime = 0 s

Time = 0.386

GAMG:  Solving for f_0, Initial residual = 0.000800826, Final residual = 3.02163e-12, No Iterations 1
GAMG:  Solving for f_1, Initial residual = 0.000372011, Final residual = 1.62901e-12, No Iterations 1
GAMG:  Solving for f_2, Initial residual = 0.000357753, Final residual = 8.06868e-13, No Iterations 1
ExecutionTime = 0.45 s    ClockTime = 0 s

Time = 0.388

GAMG:  Solving for f_0, Initial residual = 0.000795479, Final residual = 3.10913e-12, No Iterations 1
GAMG:  Solving for f_1, Initial residual = 0.000370373, Final residual = 1.76096e-12, No Iterations 1
GAMG:  Solving for f_2, Initial residual = 0.000356147, Final residual = 8.61113e-13, No Iterations 1
ExecutionTime = 0.45 s    ClockTime = 0 s

Time = 0.39

GAMG:  Solving for f_0, Initial residual = 0.000790178, Final residual = 2.93892e-12, No Iterations 1
GAMG:  Solving for f_1, Initial residual = 0.000368744, Final residual = 1.91157e-12, No Iterations 1
GAMG:  Solving for f_2, Initial residual = 0.000354551, Final residual = 9.19656e-13, No Iterations 1
ExecutionTime = 0.46 s    ClockTime = 0 s

Time = 0.392

GAMG:  Solving for f_0, Initial residual = 0.000784916, Final residual = 3.33597e-12, No Iterations 1
GAMG:  Solving for f_1, Initial residual = 0.000367127, Final residual = 2.06364e-12, No Iterations 1
GAMG:  Solving for f_2, Initial residual = 0.000352976, Final residual = 9.80726e-13, No Iterations 1
ExecutionTime = 0.46 s    ClockTime = 0 s

Time = 0.394

GAMG:  Solving for f_0, Initial residual = 0.000779694, Final residual = 3.13126e-12, No Iterations 1
GAMG:  Solving for f_1, Initial residual = 0.000365527, Final residual = 2.23678e-12, No Iterations 1
GAMG:  Solving for f_2, Initial residual = 0.000351425, Final residual = 1.05321e-12, No Iterations 1
ExecutionTime = 0.46 s    ClockTime = 0 s

Time = 0.396

GAMG:  Solving for f_0, Initial residual = 0.000774512, Final residual = 3.16732e-12, No Iterations 1
GAMG:  Solving for f_1, Initial residual = 0.000363939, Final residual = 2.41206e-12, No Iterations 1
GAMG:  Solving for f_2, Initial residual = 0.000349887, Final residual = 1.13321e-12, No Iterations 1
ExecutionTime = 0.46 s    ClockTime = 0 s

Time = 0.398

GAMG:  Solving for f_0, Initial residual = 0.000769368, Final residual = 3.35841e-12, No Iterations 1
GAMG:  Solving for f_1, Initial residual = 0.000362375, Final residual = 2.6037e-12, No Iterations 1
GAMG:  Solving for f_2, Initial residual = 0.000348376, Final residual = 1.21611e-12, No Iterations 1
ExecutionTime = 0.46 s    ClockTime = 1 s

Time = 0.4

GAMG:  Solving for f_0, Initial residual = 0.000764262, Final residual = 3.34291e-12, No Iterations 1
GAMG:  Solving for f_1, Initial residual = 0.000360821, Final residual = 2.81205e-12, No Iterations 1
GAMG:  Solving for f_2, Initial residual = 0.000346877, Final residual = 1.30404e-12, No Iterations 1
ExecutionTime = 0.47 s    ClockTime = 1 s

Time = 0.402

GAMG:  Solving for f_0, Initial residual = 0.000759195, Final residual = 3.25842e-12, No Iterations 1
GAMG:  Solving for f_1, Initial residual = 0.000359277, Final residual = 3.03071e-12, No Iterations 1
GAMG:  Solving for f_2, Initial residual = 0.000345393, Final residual = 1.41588e-12, No Iterations 1
ExecutionTime = 0.48 s    ClockTime = 1 s

Time = 0.404

GAMG:  Solving for f_0, Initial residual = 0.000754176, Final residual = 3.31181e-12, No Iterations 1
GAMG:  Solving for f_1, Initial residual = 0.000357744, Final residual = 3.26204e-12, No Iterations 1
GAMG:  Solving for f_2, Initial residual = 0.000343932, Final residual = 1.50393e-12, No Iterations 1
ExecutionTime = 0.48 s    ClockTime = 1 s

Time = 0.406

GAMG:  Solving for f_0, Initial residual = 0.000749266, Final residual = 3.22716e-12, No Iterations 1
GAMG:  Solving for f_1, Initial residual = 0.000356228, Final residual = 3.51725e-12, No Iterations 1
GAMG:  Solving for f_2, Initial residual = 0.000342481, Final residual = 1.62017e-12, No Iterations 1
ExecutionTime = 0.48 s    ClockTime = 1 s

Time = 0.408

GAMG:  Solving for f_0, Initial residual = 0.000744402, Final residual = 3.1942e-12, No Iterations 1
GAMG:  Solving for f_1, Initial residual = 0.000354738, Final residual = 3.78042e-12, No Iterations 1
GAMG:  Solving for f_2, Initial residual = 0.000341039, Final residual = 1.74004e-12, No Iterations 1
ExecutionTime = 0.48 s    ClockTime = 1 s

Time = 0.41

GAMG:  Solving for f_0, Initial residual = 0.000739589, Final residual = 3.35122e-12, No Iterations 1
GAMG:  Solving for f_1, Initial residual = 0.000353261, Final residual = 4.06241e-12, No Iterations 1
GAMG:  Solving for f_2, Initial residual = 0.000339607, Final residual = 1.86284e-12, No Iterations 1
ExecutionTime = 0.48 s    ClockTime = 1 s

Time = 0.412

GAMG:  Solving for f_0, Initial residual = 0.000734811, Final residual = 3.40468e-12, No Iterations 1
GAMG:  Solving for f_1, Initial residual = 0.000351806, Final residual = 4.3578e-12, No Iterations 1
GAMG:  Solving for f_2, Initial residual = 0.000338184, Final residual = 1.9982e-12, No Iterations 1
ExecutionTime = 0.49 s    ClockTime = 1 s

Time = 0.414

GAMG:  Solving for f_0, Initial residual = 0.000730067, Final residual = 3.28527e-12, No Iterations 1
GAMG:  Solving for f_1, Initial residual = 0.000350358, Final residual = 4.67847e-12, No Iterations 1
GAMG:  Solving for f_2, Initial residual = 0.000336773, Final residual = 2.14398e-12, No Iterations 1
ExecutionTime = 0.49 s    ClockTime = 1 s

Time = 0.416

GAMG:  Solving for f_0, Initial residual = 0.000725371, Final residual = 3.32143e-12, No Iterations 1
GAMG:  Solving for f_1, Initial residual = 0.00034892, Final residual = 5.01869e-12, No Iterations 1
GAMG:  Solving for f_2, Initial residual = 0.000335393, Final residual = 2.29878e-12, No Iterations 1
ExecutionTime = 0.49 s    ClockTime = 1 s

Time = 0.418

GAMG:  Solving for f_0, Initial residual = 0.000720744, Final residual = 3.23646e-12, No Iterations 1
GAMG:  Solving for f_1, Initial residual = 0.000347491, Final residual = 5.37713e-12, No Iterations 1
GAMG:  Solving for f_2, Initial residual = 0.000334023, Final residual = 2.46081e-12, No Iterations 1
ExecutionTime = 0.49 s    ClockTime = 1 s

Time = 0.42

GAMG:  Solving for f_0, Initial residual = 0.000716171, Final residual = 3.2553e-12, No Iterations 1
GAMG:  Solving for f_1, Initial residual = 0.000346071, Final residual = 5.747e-12, No Iterations 1
GAMG:  Solving for f_2, Initial residual = 0.000332661, Final residual = 2.63008e-12, No Iterations 1
ExecutionTime = 0.5 s    ClockTime = 1 s

Time = 0.422

GAMG:  Solving for f_0, Initial residual = 0.000711631, Final residual = 3.56864e-12, No Iterations 1
GAMG:  Solving for f_1, Initial residual = 0.000344659, Final residual = 6.14735e-12, No Iterations 1
GAMG:  Solving for f_2, Initial residual = 0.000331307, Final residual = 2.81803e-12, No Iterations 1
ExecutionTime = 0.5 s    ClockTime = 1 s

Time = 0.424

GAMG:  Solving for f_0, Initial residual = 0.000707134, Final residual = 3.36232e-12, No Iterations 1
GAMG:  Solving for f_1, Initial residual = 0.000343257, Final residual = 6.57481e-12, No Iterations 1
GAMG:  Solving for f_2, Initial residual = 0.000329963, Final residual = 3.01217e-12, No Iterations 1
ExecutionTime = 0.5 s    ClockTime = 1 s

Time = 0.426

GAMG:  Solving for f_0, Initial residual = 0.000702682, Final residual = 3.13845e-12, No Iterations 1
GAMG:  Solving for f_1, Initial residual = 0.000341874, Final residual = 7.0158e-12, No Iterations 1
GAMG:  Solving for f_2, Initial residual = 0.000328626, Final residual = 3.23287e-12, No Iterations 1
ExecutionTime = 0.5 s    ClockTime = 1 s

Time = 0.428

GAMG:  Solving for f_0, Initial residual = 0.000698261, Final residual = 3.69501e-12, No Iterations 1
GAMG:  Solving for f_1, Initial residual = 0.000340506, Final residual = 7.48429e-12, No Iterations 1
GAMG:  Solving for f_2, Initial residual = 0.000327299, Final residual = 3.44619e-12, No Iterations 1
ExecutionTime = 0.51 s    ClockTime = 1 s

Time = 0.43

GAMG:  Solving for f_0, Initial residual = 0.000693871, Final residual = 3.21074e-12, No Iterations 1
GAMG:  Solving for f_1, Initial residual = 0.000339152, Final residual = 7.98165e-12, No Iterations 1
GAMG:  Solving for f_2, Initial residual = 0.000325988, Final residual = 3.67251e-12, No Iterations 1
ExecutionTime = 0.51 s    ClockTime = 1 s

Time = 0.432

GAMG:  Solving for f_0, Initial residual = 0.000689512, Final residual = 3.29901e-12, No Iterations 1
GAMG:  Solving for f_1, Initial residual = 0.000337818, Final residual = 8.50383e-12, No Iterations 1
GAMG:  Solving for f_2, Initial residual = 0.000324686, Final residual = 3.92756e-12, No Iterations 1
ExecutionTime = 0.51 s    ClockTime = 1 s

Time = 0.434

GAMG:  Solving for f_0, Initial residual = 0.000685189, Final residual = 3.3005e-12, No Iterations 1
GAMG:  Solving for f_1, Initial residual = 0.000336492, Final residual = 9.05562e-12, No Iterations 1
[...]
ExecutionTime = 5.9 s    ClockTime = 6 s

Time = 4.892

GAMG:  Solving for f_0, Initial residual = 4.12064e-05, Final residual = 6.01006e-12, No Iterations 1
GAMG:  Solving for f_1, Initial residual = 8.01217e-05, Final residual = 2.57382e-10, No Iterations 1
GAMG:  Solving for f_2, Initial residual = 7.77763e-05, Final residual = 1.40022e-10, No Iterations 1
ExecutionTime = 5.9 s    ClockTime = 6 s

Time = 4.894

GAMG:  Solving for f_0, Initial residual = 4.11885e-05, Final residual = 6.19878e-12, No Iterations 1
GAMG:  Solving for f_1, Initial residual = 8.01043e-05, Final residual = 2.58124e-10, No Iterations 1
GAMG:  Solving for f_2, Initial residual = 7.77593e-05, Final residual = 1.40825e-10, No Iterations 1
ExecutionTime = 5.9 s    ClockTime = 6 s

Time = 4.896

GAMG:  Solving for f_0, Initial residual = 4.11707e-05, Final residual = 6.13621e-12, No Iterations 1
GAMG:  Solving for f_1, Initial residual = 8.00869e-05, Final residual = 2.58864e-10, No Iterations 1
GAMG:  Solving for f_2, Initial residual = 7.77422e-05, Final residual = 1.41614e-10, No Iterations 1
ExecutionTime = 5.9 s    ClockTime = 6 s

Time = 4.898

GAMG:  Solving for f_0, Initial residual = 4.11529e-05, Final residual = 6.19929e-12, No Iterations 1
GAMG:  Solving for f_1, Initial residual = 8.00695e-05, Final residual = 2.59616e-10, No Iterations 1
GAMG:  Solving for f_2, Initial residual = 7.77251e-05, Final residual = 1.42407e-10, No Iterations 1
ExecutionTime = 5.9 s    ClockTime = 6 s

Time = 4.9

GAMG:  Solving for f_0, Initial residual = 4.11351e-05, Final residual = 5.94821e-12, No Iterations 1
GAMG:  Solving for f_1, Initial residual = 8.00521e-05, Final residual = 2.60354e-10, No Iterations 1
GAMG:  Solving for f_2, Initial residual = 7.7708e-05, Final residual = 1.43211e-10, No Iterations 1
ExecutionTime = 5.91 s    ClockTime = 6 s

Time = 4.902

GAMG:  Solving for f_0, Initial residual = 4.11172e-05, Final residual = 5.40388e-12, No Iterations 1
GAMG:  Solving for f_1, Initial residual = 8.00347e-05, Final residual = 2.61111e-10, No Iterations 1
GAMG:  Solving for f_2, Initial residual = 7.7691e-05, Final residual = 1.44028e-10, No Iterations 1
ExecutionTime = 5.91 s    ClockTime = 6 s

Time = 4.904

GAMG:  Solving for f_0, Initial residual = 4.10994e-05, Final residual = 6.47235e-12, No Iterations 1
GAMG:  Solving for f_1, Initial residual = 8.00173e-05, Final residual = 2.61859e-10, No Iterations 1
GAMG:  Solving for f_2, Initial residual = 7.76739e-05, Final residual = 1.44814e-10, No Iterations 1
ExecutionTime = 5.92 s    ClockTime = 6 s

Time = 4.906

GAMG:  Solving for f_0, Initial residual = 4.10816e-05, Final residual = 5.96989e-12, No Iterations 1
GAMG:  Solving for f_1, Initial residual = 8e-05, Final residual = 2.62595e-10, No Iterations 1
GAMG:  Solving for f_2, Initial residual = 7.76569e-05, Final residual = 1.45595e-10, No Iterations 1
ExecutionTime = 5.92 s    ClockTime = 6 s

Time = 4.908

GAMG:  Solving for f_0, Initial residual = 4.10638e-05, Final residual = 5.48834e-12, No Iterations 1
GAMG:  Solving for f_1, Initial residual = 7.99826e-05, Final residual = 2.63345e-10, No Iterations 1
GAMG:  Solving for f_2, Initial residual = 7.76398e-05, Final residual = 1.46386e-10, No Iterations 1
ExecutionTime = 5.92 s    ClockTime = 6 s

Time = 4.91

GAMG:  Solving for f_0, Initial residual = 4.1046e-05, Final residual = 5.99133e-12, No Iterations 1
GAMG:  Solving for f_1, Initial residual = 7.99652e-05, Final residual = 2.64069e-10, No Iterations 1
GAMG:  Solving for f_2, Initial residual = 7.76227e-05, Final residual = 1.47181e-10, No Iterations 1
ExecutionTime = 5.92 s    ClockTime = 6 s

Time = 4.912

GAMG:  Solving for f_0, Initial residual = 4.10282e-05, Final residual = 5.94968e-12, No Iterations 1
GAMG:  Solving for f_1, Initial residual = 7.99478e-05, Final residual = 2.64824e-10, No Iterations 1
GAMG:  Solving for f_2, Initial residual = 7.76056e-05, Final residual = 1.47978e-10, No Iterations 1
ExecutionTime = 5.92 s    ClockTime = 6 s

Time = 4.914

GAMG:  Solving for f_0, Initial residual = 4.10104e-05, Final residual = 5.65661e-12, No Iterations 1
GAMG:  Solving for f_1, Initial residual = 7.99305e-05, Final residual = 2.6557e-10, No Iterations 1
GAMG:  Solving for f_2, Initial residual = 7.75885e-05, Final residual = 1.48764e-10, No Iterations 1
ExecutionTime = 5.93 s    ClockTime = 6 s

Time = 4.916

GAMG:  Solving for f_0, Initial residual = 4.09926e-05, Final residual = 5.88731e-12, No Iterations 1
GAMG:  Solving for f_1, Initial residual = 7.99131e-05, Final residual = 2.66277e-10, No Iterations 1
GAMG:  Solving for f_2, Initial residual = 7.75714e-05, Final residual = 1.49549e-10, No Iterations 1
ExecutionTime = 5.93 s    ClockTime = 6 s

Time = 4.918

GAMG:  Solving for f_0, Initial residual = 4.09748e-05, Final residual = 6.20183e-12, No Iterations 1
GAMG:  Solving for f_1, Initial residual = 7.98957e-05, Final residual = 2.67027e-10, No Iterations 1
GAMG:  Solving for f_2, Initial residual = 7.75543e-05, Final residual = 1.50338e-10, No Iterations 1
ExecutionTime = 5.93 s    ClockTime = 6 s

Time = 4.92

GAMG:  Solving for f_0, Initial residual = 4.0957e-05, Final residual = 6.2859e-12, No Iterations 1
GAMG:  Solving for f_1, Initial residual = 7.98784e-05, Final residual = 2.67755e-10, No Iterations 1
GAMG:  Solving for f_2, Initial residual = 7.75372e-05, Final residual = 1.51127e-10, No Iterations 1
ExecutionTime = 5.93 s    ClockTime = 6 s

Time = 4.922

GAMG:  Solving for f_0, Initial residual = 4.09392e-05, Final residual = 6.11853e-12, No Iterations 1
GAMG:  Solving for f_1, Initial residual = 7.9861e-05, Final residual = 2.68511e-10, No Iterations 1
GAMG:  Solving for f_2, Initial residual = 7.75202e-05, Final residual = 1.51913e-10, No Iterations 1
ExecutionTime = 5.93 s    ClockTime = 6 s

Time = 4.924

GAMG:  Solving for f_0, Initial residual = 4.09214e-05, Final residual = 5.97209e-12, No Iterations 1
GAMG:  Solving for f_1, Initial residual = 7.98437e-05, Final residual = 2.69238e-10, No Iterations 1
GAMG:  Solving for f_2, Initial residual = 7.75031e-05, Final residual = 1.52692e-10, No Iterations 1
ExecutionTime = 5.93 s    ClockTime = 6 s

Time = 4.926

GAMG:  Solving for f_0, Initial residual = 4.09036e-05, Final residual = 5.57418e-12, No Iterations 1
GAMG:  Solving for f_1, Initial residual = 7.98263e-05, Final residual = 2.69984e-10, No Iterations 1
GAMG:  Solving for f_2, Initial residual = 7.7486e-05, Final residual = 1.53487e-10, No Iterations 1
ExecutionTime = 5.94 s    ClockTime = 6 s

Time = 4.928

GAMG:  Solving for f_0, Initial residual = 4.08861e-05, Final residual = 6.14023e-12, No Iterations 1
GAMG:  Solving for f_1, Initial residual = 7.9809e-05, Final residual = 2.7069e-10, No Iterations 1
GAMG:  Solving for f_2, Initial residual = 7.74689e-05, Final residual = 1.54277e-10, No Iterations 1
ExecutionTime = 5.94 s    ClockTime = 6 s

Time = 4.93

GAMG:  Solving for f_0, Initial residual = 4.08686e-05, Final residual = 6.53867e-12, No Iterations 1
GAMG:  Solving for f_1, Initial residual = 7.97917e-05, Final residual = 2.71427e-10, No Iterations 1
GAMG:  Solving for f_2, Initial residual = 7.74519e-05, Final residual = 1.55036e-10, No Iterations 1
ExecutionTime = 5.94 s    ClockTime = 6 s

Time = 4.932

GAMG:  Solving for f_0, Initial residual = 4.08511e-05, Final residual = 5.97307e-12, No Iterations 1
GAMG:  Solving for f_1, Initial residual = 7.97743e-05, Final residual = 2.72145e-10, No Iterations 1
GAMG:  Solving for f_2, Initial residual = 7.74348e-05, Final residual = 1.55802e-10, No Iterations 1
ExecutionTime = 5.94 s    ClockTime = 6 s

Time = 4.934

GAMG:  Solving for f_0, Initial residual = 4.08336e-05, Final residual = 6.47633e-12, No Iterations 1
GAMG:  Solving for f_1, Initial residual = 7.9757e-05, Final residual = 2.72878e-10, No Iterations 1
GAMG:  Solving for f_2, Initial residual = 7.74177e-05, Final residual = 1.56599e-10, No Iterations 1
ExecutionTime = 5.94 s    ClockTime = 6 s

Time = 4.936

GAMG:  Solving for f_0, Initial residual = 4.08161e-05, Final residual = 5.93164e-12, No Iterations 1
GAMG:  Solving for f_1, Initial residual = 7.97397e-05, Final residual = 2.73614e-10, No Iterations 1
GAMG:  Solving for f_2, Initial residual = 7.74011e-05, Final residual = 1.57379e-10, No Iterations 1
ExecutionTime = 5.94 s    ClockTime = 6 s

Time = 4.938

GAMG:  Solving for f_0, Initial residual = 4.07986e-05, Final residual = 5.9738e-12, No Iterations 1
GAMG:  Solving for f_1, Initial residual = 7.97224e-05, Final residual = 2.74325e-10, No Iterations 1
GAMG:  Solving for f_2, Initial residual = 7.73845e-05, Final residual = 1.58141e-10, No Iterations 1
ExecutionTime = 5.95 s    ClockTime = 6 s

Time = 4.94

GAMG:  Solving for f_0, Initial residual = 4.07811e-05, Final residual = 5.30328e-12, No Iterations 1
GAMG:  Solving for f_1, Initial residual = 7.97051e-05, Final residual = 2.75049e-10, No Iterations 1
GAMG:  Solving for f_2, Initial residual = 7.73679e-05, Final residual = 1.58923e-10, No Iterations 1
ExecutionTime = 5.95 s    ClockTime = 6 s

Time = 4.942

GAMG:  Solving for f_0, Initial residual = 4.07636e-05, Final residual = 5.95333e-12, No Iterations 1
GAMG:  Solving for f_1, Initial residual = 7.96878e-05, Final residual = 2.75772e-10, No Iterations 1
GAMG:  Solving for f_2, Initial residual = 7.73513e-05, Final residual = 1.5968e-10, No Iterations 1
ExecutionTime = 5.95 s    ClockTime = 6 s

Time = 4.944

GAMG:  Solving for f_0, Initial residual = 4.07461e-05, Final residual = 5.93261e-12, No Iterations 1
GAMG:  Solving for f_1, Initial residual = 7.96704e-05, Final residual = 2.7649e-10, No Iterations 1
GAMG:  Solving for f_2, Initial residual = 7.73347e-05, Final residual = 1.6047e-10, No Iterations 1
ExecutionTime = 5.95 s    ClockTime = 6 s

Time = 4.946

GAMG:  Solving for f_0, Initial residual = 4.07287e-05, Final residual = 5.89092e-12, No Iterations 1
GAMG:  Solving for f_1, Initial residual = 7.9653e-05, Final residual = 2.77199e-10, No Iterations 1
GAMG:  Solving for f_2, Initial residual = 7.73181e-05, Final residual = 1.61226e-10, No Iterations 1
ExecutionTime = 5.95 s    ClockTime = 6 s

Time = 4.948

GAMG:  Solving for f_0, Initial residual = 4.07112e-05, Final residual = 6.07984e-12, No Iterations 1
GAMG:  Solving for f_1, Initial residual = 7.96356e-05, Final residual = 2.77923e-10, No Iterations 1
GAMG:  Solving for f_2, Initial residual = 7.73015e-05, Final residual = 1.61993e-10, No Iterations 1
ExecutionTime = 5.96 s    ClockTime = 6 s

Time = 4.95

GAMG:  Solving for f_0, Initial residual = 4.06937e-05, Final residual = 5.87043e-12, No Iterations 1
GAMG:  Solving for f_1, Initial residual = 7.96182e-05, Final residual = 2.78644e-10, No Iterations 1
GAMG:  Solving for f_2, Initial residual = 7.72849e-05, Final residual = 1.62788e-10, No Iterations 1
ExecutionTime = 5.96 s    ClockTime = 6 s

Time = 4.952

GAMG:  Solving for f_0, Initial residual = 4.06762e-05, Final residual = 6.08034e-12, No Iterations 1
GAMG:  Solving for f_1, Initial residual = 7.96009e-05, Final residual = 2.79359e-10, No Iterations 1
GAMG:  Solving for f_2, Initial residual = 7.72684e-05, Final residual = 1.63544e-10, No Iterations 1
ExecutionTime = 5.97 s    ClockTime = 6 s

Time = 4.954

GAMG:  Solving for f_0, Initial residual = 4.06587e-05, Final residual = 6.12252e-12, No Iterations 1
GAMG:  Solving for f_1, Initial residual = 7.95835e-05, Final residual = 2.80068e-10, No Iterations 1
GAMG:  Solving for f_2, Initial residual = 7.72518e-05, Final residual = 1.64309e-10, No Iterations 1
ExecutionTime = 5.97 s    ClockTime = 6 s

Time = 4.956

GAMG:  Solving for f_0, Initial residual = 4.06413e-05, Final residual = 5.82921e-12, No Iterations 1
GAMG:  Solving for f_1, Initial residual = 7.95661e-05, Final residual = 2.80782e-10, No Iterations 1
GAMG:  Solving for f_2, Initial residual = 7.72352e-05, Final residual = 1.65062e-10, No Iterations 1
ExecutionTime = 5.97 s    ClockTime = 6 s

Time = 4.958

GAMG:  Solving for f_0, Initial residual = 4.06238e-05, Final residual = 5.9343e-12, No Iterations 1
GAMG:  Solving for f_1, Initial residual = 7.95487e-05, Final residual = 2.81501e-10, No Iterations 1
GAMG:  Solving for f_2, Initial residual = 7.72186e-05, Final residual = 1.65836e-10, No Iterations 1
ExecutionTime = 5.97 s    ClockTime = 6 s

Time = 4.96

GAMG:  Solving for f_0, Initial residual = 4.06064e-05, Final residual = 5.45223e-12, No Iterations 1
GAMG:  Solving for f_1, Initial residual = 7.95314e-05, Final residual = 2.82211e-10, No Iterations 1
GAMG:  Solving for f_2, Initial residual = 7.72021e-05, Final residual = 1.66592e-10, No Iterations 1
ExecutionTime = 5.97 s    ClockTime = 6 s

Time = 4.962

GAMG:  Solving for f_0, Initial residual = 4.05889e-05, Final residual = 5.62022e-12, No Iterations 1
GAMG:  Solving for f_1, Initial residual = 7.9514e-05, Final residual = 2.82901e-10, No Iterations 1
GAMG:  Solving for f_2, Initial residual = 7.71855e-05, Final residual = 1.6735e-10, No Iterations 1
ExecutionTime = 5.97 s    ClockTime = 6 s

Time = 4.964

GAMG:  Solving for f_0, Initial residual = 4.05715e-05, Final residual = 6.37543e-12, No Iterations 1
GAMG:  Solving for f_1, Initial residual = 7.94967e-05, Final residual = 2.83635e-10, No Iterations 1
GAMG:  Solving for f_2, Initial residual = 7.7169e-05, Final residual = 1.68112e-10, No Iterations 1
ExecutionTime = 5.97 s    ClockTime = 6 s

Time = 4.966

GAMG:  Solving for f_0, Initial residual = 4.0554e-05, Final residual = 6.58542e-12, No Iterations 1
GAMG:  Solving for f_1, Initial residual = 7.94793e-05, Final residual = 2.84326e-10, No Iterations 1
GAMG:  Solving for f_2, Initial residual = 7.71524e-05, Final residual = 1.68866e-10, No Iterations 1
ExecutionTime = 5.98 s    ClockTime = 6 s

Time = 4.968

GAMG:  Solving for f_0, Initial residual = 4.05366e-05, Final residual = 5.97745e-12, No Iterations 1
GAMG:  Solving for f_1, Initial residual = 7.94619e-05, Final residual = 2.85038e-10, No Iterations 1
GAMG:  Solving for f_2, Initial residual = 7.71359e-05, Final residual = 1.69651e-10, No Iterations 1
ExecutionTime = 5.98 s    ClockTime = 6 s

Time = 4.97

GAMG:  Solving for f_0, Initial residual = 4.05191e-05, Final residual = 6.18744e-12, No Iterations 1
GAMG:  Solving for f_1, Initial residual = 7.94446e-05, Final residual = 2.85737e-10, No Iterations 1
GAMG:  Solving for f_2, Initial residual = 7.71193e-05, Final residual = 1.70392e-10, No Iterations 1
ExecutionTime = 5.98 s    ClockTime = 6 s

Time = 4.972

GAMG:  Solving for f_0, Initial residual = 4.05017e-05, Final residual = 5.87306e-12, No Iterations 1
GAMG:  Solving for f_1, Initial residual = 7.94273e-05, Final residual = 2.86463e-10, No Iterations 1
GAMG:  Solving for f_2, Initial residual = 7.71028e-05, Final residual = 1.71167e-10, No Iterations 1
ExecutionTime = 5.98 s    ClockTime = 6 s

Time = 4.974

GAMG:  Solving for f_0, Initial residual = 4.04842e-05, Final residual = 5.97818e-12, No Iterations 1
GAMG:  Solving for f_1, Initial residual = 7.94099e-05, Final residual = 2.87151e-10, No Iterations 1
GAMG:  Solving for f_2, Initial residual = 7.70862e-05, Final residual = 1.71899e-10, No Iterations 1
ExecutionTime = 5.98 s    ClockTime = 6 s

Time = 4.976

GAMG:  Solving for f_0, Initial residual = 4.04668e-05, Final residual = 6.10428e-12, No Iterations 1
GAMG:  Solving for f_1, Initial residual = 7.93926e-05, Final residual = 2.87849e-10, No Iterations 1
GAMG:  Solving for f_2, Initial residual = 7.70696e-05, Final residual = 1.72658e-10, No Iterations 1
ExecutionTime = 5.99 s    ClockTime = 6 s

Time = 4.978

GAMG:  Solving for f_0, Initial residual = 4.04494e-05, Final residual = 6.12551e-12, No Iterations 1
GAMG:  Solving for f_1, Initial residual = 7.93753e-05, Final residual = 2.88557e-10, No Iterations 1
GAMG:  Solving for f_2, Initial residual = 7.7053e-05, Final residual = 1.73403e-10, No Iterations 1
ExecutionTime = 5.99 s    ClockTime = 6 s

Time = 4.98

GAMG:  Solving for f_0, Initial residual = 4.04319e-05, Final residual = 6.3775e-12, No Iterations 1
GAMG:  Solving for f_1, Initial residual = 7.9358e-05, Final residual = 2.89247e-10, No Iterations 1
GAMG:  Solving for f_2, Initial residual = 7.70364e-05, Final residual = 1.74144e-10, No Iterations 1
ExecutionTime = 5.99 s    ClockTime = 6 s

Time = 4.982

GAMG:  Solving for f_0, Initial residual = 4.04145e-05, Final residual = 5.74838e-12, No Iterations 1
GAMG:  Solving for f_1, Initial residual = 7.93411e-05, Final residual = 2.89955e-10, No Iterations 1
GAMG:  Solving for f_2, Initial residual = 7.70198e-05, Final residual = 1.74887e-10, No Iterations 1
ExecutionTime = 5.99 s    ClockTime = 6 s

Time = 4.984

GAMG:  Solving for f_0, Initial residual = 4.03971e-05, Final residual = 6.21018e-12, No Iterations 1
GAMG:  Solving for f_1, Initial residual = 7.93242e-05, Final residual = 2.90637e-10, No Iterations 1
GAMG:  Solving for f_2, Initial residual = 7.70032e-05, Final residual = 1.75652e-10, No Iterations 1
ExecutionTime = 5.99 s    ClockTime = 6 s

Time = 4.986

GAMG:  Solving for f_0, Initial residual = 4.03796e-05, Final residual = 5.70688e-12, No Iterations 1
GAMG:  Solving for f_1, Initial residual = 7.93074e-05, Final residual = 2.91346e-10, No Iterations 1
GAMG:  Solving for f_2, Initial residual = 7.69866e-05, Final residual = 1.76379e-10, No Iterations 1
ExecutionTime = 6 s    ClockTime = 6 s

Time = 4.988

GAMG:  Solving for f_0, Initial residual = 4.03622e-05, Final residual = 6.25264e-12, No Iterations 1
GAMG:  Solving for f_1, Initial residual = 7.92905e-05, Final residual = 2.92036e-10, No Iterations 1
GAMG:  Solving for f_2, Initial residual = 7.697e-05, Final residual = 1.77139e-10, No Iterations 1
ExecutionTime = 6 s    ClockTime = 6 s

Time = 4.99

GAMG:  Solving for f_0, Initial residual = 4.03449e-05, Final residual = 5.5185e-12, No Iterations 1
GAMG:  Solving for f_1, Initial residual = 7.92737e-05, Final residual = 2.92712e-10, No Iterations 1
GAMG:  Solving for f_2, Initial residual = 7.69534e-05, Final residual = 1.77894e-10, No Iterations 1
ExecutionTime = 6 s    ClockTime = 6 s

Time = 4.992

GAMG:  Solving for f_0, Initial residual = 4.03278e-05, Final residual = 6.50496e-12, No Iterations 1
GAMG:  Solving for f_1, Initial residual = 7.92568e-05, Final residual = 2.93411e-10, No Iterations 1
GAMG:  Solving for f_2, Initial residual = 7.69368e-05, Final residual = 1.78652e-10, No Iterations 1
ExecutionTime = 6 s    ClockTime = 6 s

Time = 4.994

GAMG:  Solving for f_0, Initial residual = 4.03109e-05, Final residual = 6.2534e-12, No Iterations 1
GAMG:  Solving for f_1, Initial residual = 7.92401e-05, Final residual = 2.94102e-10, No Iterations 1
GAMG:  Solving for f_2, Initial residual = 7.69202e-05, Final residual = 1.79372e-10, No Iterations 1
ExecutionTime = 6 s    ClockTime = 6 s

Time = 4.996

GAMG:  Solving for f_0, Initial residual = 4.02939e-05, Final residual = 6.08577e-12, No Iterations 1
GAMG:  Solving for f_1, Initial residual = 7.92233e-05, Final residual = 2.94797e-10, No Iterations 1
GAMG:  Solving for f_2, Initial residual = 7.69036e-05, Final residual = 1.80095e-10, No Iterations 1
ExecutionTime = 6 s    ClockTime = 6 s

Time = 4.998

GAMG:  Solving for f_0, Initial residual = 4.02769e-05, Final residual = 6.33785e-12, No Iterations 1
GAMG:  Solving for f_1, Initial residual = 7.92065e-05, Final residual = 2.95478e-10, No Iterations 1
GAMG:  Solving for f_2, Initial residual = 7.6887e-05, Final residual = 1.80868e-10, No Iterations 1
ExecutionTime = 6.01 s    ClockTime = 6 s

Time = 5

GAMG:  Solving for f_0, Initial residual = 4.02599e-05, Final residual = 6.10725e-12, No Iterations 1
GAMG:  Solving for f_1, Initial residual = 7.91897e-05, Final residual = 2.96173e-10, No Iterations 1
GAMG:  Solving for f_2, Initial residual = 7.68705e-05, Final residual = 1.81589e-10, No Iterations 1
ExecutionTime = 6.08 s    ClockTime = 6 s

End

