/*---------------------------------------------------------------------------*\
  =========                 |
  \\      /  F ield         | OpenFOAM: The Open Source CFD Toolbox
   \\    /   O peration     | Website:  https://openfoam.org
    \\  /    A nd           | Version:  9
     \\/     M anipulation  |
\*---------------------------------------------------------------------------*/
Build  : 9-c96968adf6d8
Exec   : lbm1Foam
Date   : Oct 12 2022
Time   : 17:13:10
Host   : "LAPTOP-GAK6QHN0"
PID    : 26482
I/O    : uncollated
Case   : /home/mala/OpenFOAM/mala-9/platforms/linux64GccDPInt32Opt/src/solvers/lbm1Foam/test
nProcs : 1
sigFpe : Enabling floating point exception trapping (FOAM_SIGFPE).
fileModificationChecking : Monitoring run-time modified files using timeStampMaster (fileModificationSkew 10)
allowSystemOperations : Allowing user-supplied system call operations

// * * * * * * * * * * * * * * * * * * * * * * * * * * * * * * * * * * * * * //
Create time

Create mesh for time = 0


PIMPLE: No convergence criteria found


PIMPLE: Operating solver in transient mode with 1 outer corrector
PIMPLE: Operating solver in PISO mode


Reading field U

Reading transportProperties

Creating LB fields

Squared Mach number = 0.00062803

BGK (lattice) relaxation time = 0.8

No fvConstraints present
No fvModels present

Initialize simulation

Volume = 20

Starting velocity error = 1

GAMG:  Solving for f_0, Initial residual = 2.2704e-11, Final residual = 3.64494e-12, No Iterations 100
GAMG:  Solving for f_1, Initial residual = 0.0154806, Final residual = 1.0718e-13, No Iterations 1
GAMG:  Solving for f_2, Initial residual = 0.0154459, Final residual = 1.81934e-13, No Iterations 1
 Initialization iterations = 1
Velocity error reached = 6.73905e-17
Initial pressure error = 2.07059e-06
Mass loss = 3.3994e-12
Mass fraction = 1
Velocity fraction = 1


Time loop

Time = 0.002

GAMG:  Solving for f_0, Initial residual = 3.64494e-12, Final residual = 3.64494e-12, No Iterations 100
GAMG:  Solving for f_1, Initial residual = 0.00689265, Final residual = 9.36401e-14, No Iterations 1
GAMG:  Solving for f_2, Initial residual = 0.00666097, Final residual = 1.65689e-13, No Iterations 1
ExecutionTime = 0.07 s    ClockTime = 0 s

Time = 0.004

GAMG:  Solving for f_0, Initial residual = 0.253544, Final residual = 2.97237e-12, No Iterations 1
GAMG:  Solving for f_1, Initial residual = 0.00814217, Final residual = 9.31102e-14, No Iterations 1
GAMG:  Solving for f_2, Initial residual = 0.00708454, Final residual = 1.47826e-13, No Iterations 1
ExecutionTime = 0.07 s    ClockTime = 0 s

Time = 0.006

GAMG:  Solving for f_0, Initial residual = 0.127761, Final residual = 2.15539e-12, No Iterations 1
GAMG:  Solving for f_1, Initial residual = 0.00743499, Final residual = 1.03848e-13, No Iterations 1
GAMG:  Solving for f_2, Initial residual = 0.00623198, Final residual = 1.61871e-13, No Iterations 1
ExecutionTime = 0.08 s    ClockTime = 0 s

Time = 0.008

GAMG:  Solving for f_0, Initial residual = 0.073505, Final residual = 1.83379e-12, No Iterations 1
GAMG:  Solving for f_1, Initial residual = 0.00691543, Final residual = 9.51169e-14, No Iterations 1
GAMG:  Solving for f_2, Initial residual = 0.00575207, Final residual = 1.58372e-13, No Iterations 1
ExecutionTime = 0.08 s    ClockTime = 0 s

Time = 0.01

GAMG:  Solving for f_0, Initial residual = 0.0452866, Final residual = 1.51878e-12, No Iterations 1
GAMG:  Solving for f_1, Initial residual = 0.00672558, Final residual = 9.8442e-14, No Iterations 1
GAMG:  Solving for f_2, Initial residual = 0.00548899, Final residual = 1.69563e-13, No Iterations 1
ExecutionTime = 0.08 s    ClockTime = 0 s

Time = 0.012

GAMG:  Solving for f_0, Initial residual = 0.0286125, Final residual = 1.45541e-12, No Iterations 1
GAMG:  Solving for f_1, Initial residual = 0.00654617, Final residual = 9.57166e-14, No Iterations 1
GAMG:  Solving for f_2, Initial residual = 0.00535, Final residual = 1.58175e-13, No Iterations 1
ExecutionTime = 0.08 s    ClockTime = 0 s

Time = 0.014

GAMG:  Solving for f_0, Initial residual = 0.0198472, Final residual = 1.39516e-12, No Iterations 1
GAMG:  Solving for f_1, Initial residual = 0.00632417, Final residual = 9.73451e-14, No Iterations 1
GAMG:  Solving for f_2, Initial residual = 0.00534285, Final residual = 1.70721e-13, No Iterations 1
ExecutionTime = 0.08 s    ClockTime = 0 s

Time = 0.016

GAMG:  Solving for f_0, Initial residual = 0.0187162, Final residual = 1.3822e-12, No Iterations 1
GAMG:  Solving for f_1, Initial residual = 0.00612234, Final residual = 9.55429e-14, No Iterations 1
GAMG:  Solving for f_2, Initial residual = 0.0052618, Final residual = 1.64814e-13, No Iterations 1
ExecutionTime = 0.08 s    ClockTime = 0 s

Time = 0.018

GAMG:  Solving for f_0, Initial residual = 0.0194903, Final residual = 1.41626e-12, No Iterations 1
GAMG:  Solving for f_1, Initial residual = 0.0059218, Final residual = 9.9268e-14, No Iterations 1
GAMG:  Solving for f_2, Initial residual = 0.00508602, Final residual = 1.70249e-13, No Iterations 1
ExecutionTime = 0.08 s    ClockTime = 0 s

Time = 0.02

GAMG:  Solving for f_0, Initial residual = 0.0206986, Final residual = 1.44497e-12, No Iterations 1
GAMG:  Solving for f_1, Initial residual = 0.00569175, Final residual = 9.28239e-14, No Iterations 1
GAMG:  Solving for f_2, Initial residual = 0.00491455, Final residual = 1.62945e-13, No Iterations 1
ExecutionTime = 0.09 s    ClockTime = 0 s

Time = 0.022

GAMG:  Solving for f_0, Initial residual = 0.0214946, Final residual = 1.42762e-12, No Iterations 1
GAMG:  Solving for f_1, Initial residual = 0.00543073, Final residual = 9.74315e-14, No Iterations 1
GAMG:  Solving for f_2, Initial residual = 0.00468339, Final residual = 1.62127e-13, No Iterations 1
ExecutionTime = 0.09 s    ClockTime = 0 s

Time = 0.024

GAMG:  Solving for f_0, Initial residual = 0.0217876, Final residual = 1.51204e-12, No Iterations 1
GAMG:  Solving for f_1, Initial residual = 0.00513119, Final residual = 9.70987e-14, No Iterations 1
GAMG:  Solving for f_2, Initial residual = 0.00446838, Final residual = 1.60651e-13, No Iterations 1
ExecutionTime = 0.09 s    ClockTime = 0 s

Time = 0.026

GAMG:  Solving for f_0, Initial residual = 0.021888, Final residual = 1.45083e-12, No Iterations 1
GAMG:  Solving for f_1, Initial residual = 0.00483256, Final residual = 9.67664e-14, No Iterations 1
GAMG:  Solving for f_2, Initial residual = 0.00424568, Final residual = 1.66657e-13, No Iterations 1
ExecutionTime = 0.09 s    ClockTime = 0 s

Time = 0.028

GAMG:  Solving for f_0, Initial residual = 0.0218054, Final residual = 1.44957e-12, No Iterations 1
GAMG:  Solving for f_1, Initial residual = 0.00456597, Final residual = 1.01724e-13, No Iterations 1
GAMG:  Solving for f_2, Initial residual = 0.00404393, Final residual = 1.64539e-13, No Iterations 1
ExecutionTime = 0.09 s    ClockTime = 0 s

Time = 0.03

GAMG:  Solving for f_0, Initial residual = 0.0214823, Final residual = 1.49797e-12, No Iterations 1
GAMG:  Solving for f_1, Initial residual = 0.0042995, Final residual = 9.84343e-14, No Iterations 1
GAMG:  Solving for f_2, Initial residual = 0.00382845, Final residual = 1.69591e-13, No Iterations 1
ExecutionTime = 0.1 s    ClockTime = 0 s

Time = 0.032

GAMG:  Solving for f_0, Initial residual = 0.0210136, Final residual = 1.63737e-12, No Iterations 1
GAMG:  Solving for f_1, Initial residual = 0.00404216, Final residual = 1.01017e-13, No Iterations 1
GAMG:  Solving for f_2, Initial residual = 0.0036231, Final residual = 1.70217e-13, No Iterations 1
ExecutionTime = 0.1 s    ClockTime = 0 s

Time = 0.034

GAMG:  Solving for f_0, Initial residual = 0.0203432, Final residual = 1.73891e-12, No Iterations 1
GAMG:  Solving for f_1, Initial residual = 0.00381655, Final residual = 9.91737e-14, No Iterations 1
GAMG:  Solving for f_2, Initial residual = 0.00341989, Final residual = 1.66119e-13, No Iterations 1
ExecutionTime = 0.1 s    ClockTime = 0 s

Time = 0.036

GAMG:  Solving for f_0, Initial residual = 0.0194628, Final residual = 1.632e-12, No Iterations 1
GAMG:  Solving for f_1, Initial residual = 0.00361565, Final residual = 9.70261e-14, No Iterations 1
GAMG:  Solving for f_2, Initial residual = 0.00325256, Final residual = 1.6296e-13, No Iterations 1
ExecutionTime = 0.1 s    ClockTime = 0 s

Time = 0.038

GAMG:  Solving for f_0, Initial residual = 0.0185168, Final residual = 1.69134e-12, No Iterations 1
GAMG:  Solving for f_1, Initial residual = 0.0034125, Final residual = 9.90207e-14, No Iterations 1
GAMG:  Solving for f_2, Initial residual = 0.00309151, Final residual = 1.71177e-13, No Iterations 1
ExecutionTime = 0.1 s    ClockTime = 0 s

Time = 0.04

GAMG:  Solving for f_0, Initial residual = 0.0175086, Final residual = 1.67502e-12, No Iterations 1
GAMG:  Solving for f_1, Initial residual = 0.00321864, Final residual = 9.77364e-14, No Iterations 1
GAMG:  Solving for f_2, Initial residual = 0.00293811, Final residual = 1.63253e-13, No Iterations 1
ExecutionTime = 0.1 s    ClockTime = 0 s

Time = 0.042

GAMG:  Solving for f_0, Initial residual = 0.016543, Final residual = 1.5904e-12, No Iterations 1
GAMG:  Solving for f_1, Initial residual = 0.0030562, Final residual = 1.00329e-13, No Iterations 1
GAMG:  Solving for f_2, Initial residual = 0.00279081, Final residual = 1.70523e-13, No Iterations 1
ExecutionTime = 0.11 s    ClockTime = 0 s

Time = 0.044

GAMG:  Solving for f_0, Initial residual = 0.0156654, Final residual = 1.75934e-12, No Iterations 1
GAMG:  Solving for f_1, Initial residual = 0.00291911, Final residual = 9.54541e-14, No Iterations 1
GAMG:  Solving for f_2, Initial residual = 0.00266751, Final residual = 1.71435e-13, No Iterations 1
ExecutionTime = 0.11 s    ClockTime = 0 s

Time = 0.046

GAMG:  Solving for f_0, Initial residual = 0.0147867, Final residual = 1.74868e-12, No Iterations 1
GAMG:  Solving for f_1, Initial residual = 0.00278558, Final residual = 9.80505e-14, No Iterations 1
GAMG:  Solving for f_2, Initial residual = 0.00255392, Final residual = 1.71706e-13, No Iterations 1
ExecutionTime = 0.11 s    ClockTime = 0 s

Time = 0.048

GAMG:  Solving for f_0, Initial residual = 0.0139293, Final residual = 1.73536e-12, No Iterations 1
GAMG:  Solving for f_1, Initial residual = 0.00265463, Final residual = 9.85417e-14, No Iterations 1
GAMG:  Solving for f_2, Initial residual = 0.00244942, Final residual = 1.71655e-13, No Iterations 1
ExecutionTime = 0.11 s    ClockTime = 0 s

Time = 0.05

GAMG:  Solving for f_0, Initial residual = 0.0131423, Final residual = 1.79041e-12, No Iterations 1
GAMG:  Solving for f_1, Initial residual = 0.00252832, Final residual = 1.07753e-13, No Iterations 1
GAMG:  Solving for f_2, Initial residual = 0.00234995, Final residual = 1.70966e-13, No Iterations 1
ExecutionTime = 0.12 s    ClockTime = 0 s

Time = 0.052

GAMG:  Solving for f_0, Initial residual = 0.0124326, Final residual = 1.84592e-12, No Iterations 1
GAMG:  Solving for f_1, Initial residual = 0.00241438, Final residual = 9.95072e-14, No Iterations 1
GAMG:  Solving for f_2, Initial residual = 0.00225672, Final residual = 1.68037e-13, No Iterations 1
ExecutionTime = 0.12 s    ClockTime = 0 s

Time = 0.054

GAMG:  Solving for f_0, Initial residual = 0.0117382, Final residual = 1.73537e-12, No Iterations 1
GAMG:  Solving for f_1, Initial residual = 0.00231422, Final residual = 1.03009e-13, No Iterations 1
GAMG:  Solving for f_2, Initial residual = 0.0021716, Final residual = 1.72781e-13, No Iterations 1
ExecutionTime = 0.12 s    ClockTime = 0 s

Time = 0.056

GAMG:  Solving for f_0, Initial residual = 0.0110929, Final residual = 1.98199e-12, No Iterations 1
GAMG:  Solving for f_1, Initial residual = 0.00222531, Final residual = 1.0803e-13, No Iterations 1
GAMG:  Solving for f_2, Initial residual = 0.00209271, Final residual = 1.70137e-13, No Iterations 1
ExecutionTime = 0.13 s    ClockTime = 0 s

Time = 0.058

GAMG:  Solving for f_0, Initial residual = 0.0105411, Final residual = 1.83232e-12, No Iterations 1
GAMG:  Solving for f_1, Initial residual = 0.00214157, Final residual = 1.04579e-13, No Iterations 1
GAMG:  Solving for f_2, Initial residual = 0.00201566, Final residual = 1.72944e-13, No Iterations 1
ExecutionTime = 0.13 s    ClockTime = 0 s

Time = 0.06

GAMG:  Solving for f_0, Initial residual = 0.010021, Final residual = 2.03355e-12, No Iterations 1
GAMG:  Solving for f_1, Initial residual = 0.00206052, Final residual = 1.01718e-13, No Iterations 1
GAMG:  Solving for f_2, Initial residual = 0.00194385, Final residual = 1.70289e-13, No Iterations 1
ExecutionTime = 0.13 s    ClockTime = 0 s

Time = 0.062

GAMG:  Solving for f_0, Initial residual = 0.009549, Final residual = 2.03891e-12, No Iterations 1
GAMG:  Solving for f_1, Initial residual = 0.00198241, Final residual = 1.06137e-13, No Iterations 1
GAMG:  Solving for f_2, Initial residual = 0.00187797, Final residual = 1.71172e-13, No Iterations 1
ExecutionTime = 0.13 s    ClockTime = 0 s

Time = 0.064

GAMG:  Solving for f_0, Initial residual = 0.00913186, Final residual = 1.9186e-12, No Iterations 1
GAMG:  Solving for f_1, Initial residual = 0.00191013, Final residual = 1.06302e-13, No Iterations 1
GAMG:  Solving for f_2, Initial residual = 0.00181787, Final residual = 1.70109e-13, No Iterations 1
ExecutionTime = 0.13 s    ClockTime = 0 s

Time = 0.066

GAMG:  Solving for f_0, Initial residual = 0.00876414, Final residual = 2.09715e-12, No Iterations 1
GAMG:  Solving for f_1, Initial residual = 0.00184582, Final residual = 1.10737e-13, No Iterations 1
GAMG:  Solving for f_2, Initial residual = 0.00176403, Final residual = 1.68702e-13, No Iterations 1
ExecutionTime = 0.13 s    ClockTime = 0 s

Time = 0.068

GAMG:  Solving for f_0, Initial residual = 0.00841362, Final residual = 1.94885e-12, No Iterations 1
GAMG:  Solving for f_1, Initial residual = 0.0017857, Final residual = 1.05404e-13, No Iterations 1
GAMG:  Solving for f_2, Initial residual = 0.00171257, Final residual = 1.71166e-13, No Iterations 1
ExecutionTime = 0.13 s    ClockTime = 0 s

Time = 0.07

GAMG:  Solving for f_0, Initial residual = 0.00807321, Final residual = 1.98894e-12, No Iterations 1
GAMG:  Solving for f_1, Initial residual = 0.00172953, Final residual = 1.0739e-13, No Iterations 1
GAMG:  Solving for f_2, Initial residual = 0.00166441, Final residual = 1.70722e-13, No Iterations 1
ExecutionTime = 0.14 s    ClockTime = 0 s

Time = 0.072

GAMG:  Solving for f_0, Initial residual = 0.00775278, Final residual = 1.99054e-12, No Iterations 1
GAMG:  Solving for f_1, Initial residual = 0.00168011, Final residual = 1.06006e-13, No Iterations 1
GAMG:  Solving for f_2, Initial residual = 0.00161793, Final residual = 1.74816e-13, No Iterations 1
ExecutionTime = 0.14 s    ClockTime = 0 s

Time = 0.074

GAMG:  Solving for f_0, Initial residual = 0.00745333, Final residual = 2.08218e-12, No Iterations 1
GAMG:  Solving for f_1, Initial residual = 0.00163349, Final residual = 1.07683e-13, No Iterations 1
GAMG:  Solving for f_2, Initial residual = 0.00157346, Final residual = 1.72417e-13, No Iterations 1
ExecutionTime = 0.14 s    ClockTime = 0 s

Time = 0.076

GAMG:  Solving for f_0, Initial residual = 0.00718374, Final residual = 1.83604e-12, No Iterations 1
GAMG:  Solving for f_1, Initial residual = 0.00158968, Final residual = 9.89206e-14, No Iterations 1
GAMG:  Solving for f_2, Initial residual = 0.00153171, Final residual = 1.70656e-13, No Iterations 1
ExecutionTime = 0.14 s    ClockTime = 0 s

Time = 0.078

GAMG:  Solving for f_0, Initial residual = 0.00691728, Final residual = 1.97905e-12, No Iterations 1
GAMG:  Solving for f_1, Initial residual = 0.00154801, Final residual = 1.11052e-13, No Iterations 1
GAMG:  Solving for f_2, Initial residual = 0.00149177, Final residual = 1.7572e-13, No Iterations 1
ExecutionTime = 0.14 s    ClockTime = 0 s

Time = 0.08

GAMG:  Solving for f_0, Initial residual = 0.00666367, Final residual = 2.14941e-12, No Iterations 1
GAMG:  Solving for f_1, Initial residual = 0.00150807, Final residual = 1.05347e-13, No Iterations 1
GAMG:  Solving for f_2, Initial residual = 0.00145384, Final residual = 1.72323e-13, No Iterations 1
ExecutionTime = 0.14 s    ClockTime = 0 s

Time = 0.082

GAMG:  Solving for f_0, Initial residual = 0.00643437, Final residual = 2.0295e-12, No Iterations 1
GAMG:  Solving for f_1, Initial residual = 0.00147078, Final residual = 1.07642e-13, No Iterations 1
GAMG:  Solving for f_2, Initial residual = 0.00141765, Final residual = 1.75762e-13, No Iterations 1
ExecutionTime = 0.14 s    ClockTime = 0 s

Time = 0.084

GAMG:  Solving for f_0, Initial residual = 0.00622604, Final residual = 2.188e-12, No Iterations 1
GAMG:  Solving for f_1, Initial residual = 0.0014359, Final residual = 1.04383e-13, No Iterations 1
GAMG:  Solving for f_2, Initial residual = 0.00138394, Final residual = 1.77571e-13, No Iterations 1
ExecutionTime = 0.15 s    ClockTime = 0 s

Time = 0.086

GAMG:  Solving for f_0, Initial residual = 0.0060236, Final residual = 2.05275e-12, No Iterations 1
GAMG:  Solving for f_1, Initial residual = 0.00140259, Final residual = 1.07918e-13, No Iterations 1
GAMG:  Solving for f_2, Initial residual = 0.00135193, Final residual = 1.76113e-13, No Iterations 1
ExecutionTime = 0.15 s    ClockTime = 0 s

Time = 0.088

GAMG:  Solving for f_0, Initial residual = 0.00583131, Final residual = 2.2259e-12, No Iterations 1
GAMG:  Solving for f_1, Initial residual = 0.00137168, Final residual = 1.00621e-13, No Iterations 1
GAMG:  Solving for f_2, Initial residual = 0.00132129, Final residual = 1.79231e-13, No Iterations 1
ExecutionTime = 0.15 s    ClockTime = 0 s

Time = 0.09

GAMG:  Solving for f_0, Initial residual = 0.00564978, Final residual = 2.14287e-12, No Iterations 1
GAMG:  Solving for f_1, Initial residual = 0.00134204, Final residual = 1.06006e-13, No Iterations 1
GAMG:  Solving for f_2, Initial residual = 0.0012923, Final residual = 1.75808e-13, No Iterations 1
ExecutionTime = 0.15 s    ClockTime = 0 s

Time = 0.092

GAMG:  Solving for f_0, Initial residual = 0.00547849, Final residual = 2.05865e-12, No Iterations 1
GAMG:  Solving for f_1, Initial residual = 0.00131354, Final residual = 1.04263e-13, No Iterations 1
GAMG:  Solving for f_2, Initial residual = 0.00126488, Final residual = 1.7303e-13, No Iterations 1
ExecutionTime = 0.15 s    ClockTime = 0 s

Time = 0.094

GAMG:  Solving for f_0, Initial residual = 0.00531929, Final residual = 2.11029e-12, No Iterations 1
GAMG:  Solving for f_1, Initial residual = 0.00128617, Final residual = 1.09351e-13, No Iterations 1
GAMG:  Solving for f_2, Initial residual = 0.00123843, Final residual = 1.75161e-13, No Iterations 1
ExecutionTime = 0.15 s    ClockTime = 0 s

Time = 0.096

GAMG:  Solving for f_0, Initial residual = 0.0051632, Final residual = 2.17576e-12, No Iterations 1
GAMG:  Solving for f_1, Initial residual = 0.00125988, Final residual = 1.03564e-13, No Iterations 1
GAMG:  Solving for f_2, Initial residual = 0.0012129, Final residual = 1.78608e-13, No Iterations 1
ExecutionTime = 0.15 s    ClockTime = 0 s

Time = 0.098

GAMG:  Solving for f_0, Initial residual = 0.00501044, Final residual = 2.03378e-12, No Iterations 1
GAMG:  Solving for f_1, Initial residual = 0.00123461, Final residual = 1.1271e-13, No Iterations 1
GAMG:  Solving for f_2, Initial residual = 0.0011884, Final residual = 1.70558e-13, No Iterations 1
ExecutionTime = 0.16 s    ClockTime = 0 s

Time = 0.1

GAMG:  Solving for f_0, Initial residual = 0.00486751, Final residual = 2.2376e-12, No Iterations 1
GAMG:  Solving for f_1, Initial residual = 0.0012105, Final residual = 1.07534e-13, No Iterations 1
GAMG:  Solving for f_2, Initial residual = 0.00116611, Final residual = 1.7236e-13, No Iterations 1
ExecutionTime = 0.16 s    ClockTime = 0 s

Time = 0.102

GAMG:  Solving for f_0, Initial residual = 0.00473368, Final residual = 2.33134e-12, No Iterations 1
GAMG:  Solving for f_1, Initial residual = 0.00118778, Final residual = 1.05777e-13, No Iterations 1
GAMG:  Solving for f_2, Initial residual = 0.00114466, Final residual = 1.79433e-13, No Iterations 1
ExecutionTime = 0.16 s    ClockTime = 0 s

Time = 0.104

GAMG:  Solving for f_0, Initial residual = 0.00461402, Final residual = 2.10317e-12, No Iterations 1
GAMG:  Solving for f_1, Initial residual = 0.0011659, Final residual = 1.04015e-13, No Iterations 1
GAMG:  Solving for f_2, Initial residual = 0.00112429, Final residual = 1.77288e-13, No Iterations 1
ExecutionTime = 0.17 s    ClockTime = 0 s

Time = 0.106

GAMG:  Solving for f_0, Initial residual = 0.00449916, Final residual = 2.35156e-12, No Iterations 1
GAMG:  Solving for f_1, Initial residual = 0.00114532, Final residual = 1.08812e-13, No Iterations 1
GAMG:  Solving for f_2, Initial residual = 0.00110454, Final residual = 1.75793e-13, No Iterations 1
ExecutionTime = 0.17 s    ClockTime = 0 s

Time = 0.108

GAMG:  Solving for f_0, Initial residual = 0.00438687, Final residual = 2.30483e-12, No Iterations 1
GAMG:  Solving for f_1, Initial residual = 0.00112549, Final residual = 1.03913e-13, No Iterations 1
GAMG:  Solving for f_2, Initial residual = 0.00108573, Final residual = 1.70664e-13, No Iterations 1
ExecutionTime = 0.17 s    ClockTime = 0 s

Time = 0.11

GAMG:  Solving for f_0, Initial residual = 0.00427693, Final residual = 2.24308e-12, No Iterations 1
GAMG:  Solving for f_1, Initial residual = 0.00110631, Final residual = 1.07776e-13, No Iterations 1
GAMG:  Solving for f_2, Initial residual = 0.00106796, Final residual = 1.74777e-13, No Iterations 1
ExecutionTime = 0.17 s    ClockTime = 0 s

Time = 0.112

GAMG:  Solving for f_0, Initial residual = 0.00416945, Final residual = 2.40842e-12, No Iterations 1
GAMG:  Solving for f_1, Initial residual = 0.00108777, Final residual = 1.0349e-13, No Iterations 1
GAMG:  Solving for f_2, Initial residual = 0.00105074, Final residual = 1.70629e-13, No Iterations 1
ExecutionTime = 0.17 s    ClockTime = 0 s

Time = 0.114

GAMG:  Solving for f_0, Initial residual = 0.00406689, Final residual = 2.20282e-12, No Iterations 1
GAMG:  Solving for f_1, Initial residual = 0.00106979, Final residual = 1.10495e-13, No Iterations 1
GAMG:  Solving for f_2, Initial residual = 0.001034, Final residual = 1.77726e-13, No Iterations 1
ExecutionTime = 0.17 s    ClockTime = 0 s

Time = 0.116

GAMG:  Solving for f_0, Initial residual = 0.00396841, Final residual = 2.32549e-12, No Iterations 1
GAMG:  Solving for f_1, Initial residual = 0.00105236, Final residual = 1.04001e-13, No Iterations 1
GAMG:  Solving for f_2, Initial residual = 0.001018, Final residual = 1.72906e-13, No Iterations 1
ExecutionTime = 0.17 s    ClockTime = 0 s

Time = 0.118

GAMG:  Solving for f_0, Initial residual = 0.00387583, Final residual = 2.13177e-12, No Iterations 1
GAMG:  Solving for f_1, Initial residual = 0.00103564, Final residual = 1.06931e-13, No Iterations 1
GAMG:  Solving for f_2, Initial residual = 0.00100244, Final residual = 1.78019e-13, No Iterations 1
ExecutionTime = 0.18 s    ClockTime = 0 s

Time = 0.12

GAMG:  Solving for f_0, Initial residual = 0.00378677, Final residual = 2.22563e-12, No Iterations 1
GAMG:  Solving for f_1, Initial residual = 0.00101969, Final residual = 1.07975e-13, No Iterations 1
GAMG:  Solving for f_2, Initial residual = 0.000987265, Final residual = 1.74514e-13, No Iterations 1
ExecutionTime = 0.18 s    ClockTime = 0 s

Time = 0.122

GAMG:  Solving for f_0, Initial residual = 0.00369985, Final residual = 2.24734e-12, No Iterations 1
GAMG:  Solving for f_1, Initial residual = 0.00100448, Final residual = 1.05867e-13, No Iterations 1
GAMG:  Solving for f_2, Initial residual = 0.000972474, Final residual = 1.7864e-13, No Iterations 1
ExecutionTime = 0.18 s    ClockTime = 0 s

Time = 0.124

GAMG:  Solving for f_0, Initial residual = 0.00361677, Final residual = 2.29794e-12, No Iterations 1
GAMG:  Solving for f_1, Initial residual = 0.00098972, Final residual = 1.07221e-13, No Iterations 1
GAMG:  Solving for f_2, Initial residual = 0.00095812, Final residual = 1.76457e-13, No Iterations 1
ExecutionTime = 0.18 s    ClockTime = 0 s

Time = 0.126

GAMG:  Solving for f_0, Initial residual = 0.00353885, Final residual = 2.47994e-12, No Iterations 1
GAMG:  Solving for f_1, Initial residual = 0.000975911, Final residual = 1.13625e-13, No Iterations 1
GAMG:  Solving for f_2, Initial residual = 0.000944476, Final residual = 1.7926e-13, No Iterations 1
ExecutionTime = 0.18 s    ClockTime = 0 s

Time = 0.128

GAMG:  Solving for f_0, Initial residual = 0.00346331, Final residual = 2.51657e-12, No Iterations 1
GAMG:  Solving for f_1, Initial residual = 0.000962718, Final residual = 1.04561e-13, No Iterations 1
GAMG:  Solving for f_2, Initial residual = 0.000931341, Final residual = 1.68417e-13, No Iterations 1
ExecutionTime = 0.18 s    ClockTime = 0 s

Time = 0.13

GAMG:  Solving for f_0, Initial residual = 0.00339065, Final residual = 2.42122e-12, No Iterations 1
GAMG:  Solving for f_1, Initial residual = 0.000949862, Final residual = 1.08443e-13, No Iterations 1
GAMG:  Solving for f_2, Initial residual = 0.00091849, Final residual = 1.73876e-13, No Iterations 1
ExecutionTime = 0.18 s    ClockTime = 0 s

Time = 0.132

GAMG:  Solving for f_0, Initial residual = 0.00332227, Final residual = 2.22214e-12, No Iterations 1
GAMG:  Solving for f_1, Initial residual = 0.000937292, Final residual = 1.0885e-13, No Iterations 1
GAMG:  Solving for f_2, Initial residual = 0.000905926, Final residual = 1.72341e-13, No Iterations 1
ExecutionTime = 0.19 s    ClockTime = 0 s

Time = 0.134

GAMG:  Solving for f_0, Initial residual = 0.0032562, Final residual = 2.39071e-12, No Iterations 1
GAMG:  Solving for f_1, Initial residual = 0.000924991, Final residual = 1.07671e-13, No Iterations 1
GAMG:  Solving for f_2, Initial residual = 0.000893645, Final residual = 1.7414e-13, No Iterations 1
ExecutionTime = 0.19 s    ClockTime = 0 s

Time = 0.136

GAMG:  Solving for f_0, Initial residual = 0.00319349, Final residual = 2.53036e-12, No Iterations 1
GAMG:  Solving for f_1, Initial residual = 0.000912964, Final residual = 1.07121e-13, No Iterations 1
GAMG:  Solving for f_2, Initial residual = 0.000881662, Final residual = 1.76274e-13, No Iterations 1
ExecutionTime = 0.19 s    ClockTime = 0 s

Time = 0.138

GAMG:  Solving for f_0, Initial residual = 0.00313209, Final residual = 2.41832e-12, No Iterations 1
GAMG:  Solving for f_1, Initial residual = 0.000901196, Final residual = 1.08154e-13, No Iterations 1
GAMG:  Solving for f_2, Initial residual = 0.000869957, Final residual = 1.78412e-13, No Iterations 1
ExecutionTime = 0.19 s    ClockTime = 0 s

Time = 0.14

GAMG:  Solving for f_0, Initial residual = 0.00307201, Final residual = 2.45427e-12, No Iterations 1
GAMG:  Solving for f_1, Initial residual = 0.000889806, Final residual = 1.00935e-13, No Iterations 1
GAMG:  Solving for f_2, Initial residual = 0.000858544, Final residual = 1.67511e-13, No Iterations 1
ExecutionTime = 0.19 s    ClockTime = 0 s

Time = 0.142

GAMG:  Solving for f_0, Initial residual = 0.0030137, Final residual = 2.32619e-12, No Iterations 1
GAMG:  Solving for f_1, Initial residual = 0.000878829, Final residual = 1.12128e-13, No Iterations 1
GAMG:  Solving for f_2, Initial residual = 0.000847512, Final residual = 1.7901e-13, No Iterations 1
ExecutionTime = 0.19 s    ClockTime = 0 s

Time = 0.144

GAMG:  Solving for f_0, Initial residual = 0.00295736, Final residual = 2.40664e-12, No Iterations 1
GAMG:  Solving for f_1, Initial residual = 0.000868089, Final residual = 1.09987e-13, No Iterations 1
GAMG:  Solving for f_2, Initial residual = 0.000836706, Final residual = 1.81146e-13, No Iterations 1
ExecutionTime = 0.19 s    ClockTime = 0 s

Time = 0.146

GAMG:  Solving for f_0, Initial residual = 0.00290234, Final residual = 2.53234e-12, No Iterations 1
GAMG:  Solving for f_1, Initial residual = 0.000857579, Final residual = 1.1166e-13, No Iterations 1
GAMG:  Solving for f_2, Initial residual = 0.000826213, Final residual = 1.75914e-13, No Iterations 1
ExecutionTime = 0.2 s    ClockTime = 0 s

Time = 0.148

GAMG:  Solving for f_0, Initial residual = 0.00284929, Final residual = 2.29806e-12, No Iterations 1
GAMG:  Solving for f_1, Initial residual = 0.000847282, Final residual = 1.06966e-13, No Iterations 1
GAMG:  Solving for f_2, Initial residual = 0.000816181, Final residual = 1.75368e-13, No Iterations 1
ExecutionTime = 0.2 s    ClockTime = 0 s

Time = 0.15

GAMG:  Solving for f_0, Initial residual = 0.00279819, Final residual = 2.39379e-12, No Iterations 1
GAMG:  Solving for f_1, Initial residual = 0.00083719, Final residual = 1.1214e-13, No Iterations 1
GAMG:  Solving for f_2, Initial residual = 0.000806433, Final residual = 1.79183e-13, No Iterations 1
ExecutionTime = 0.2 s    ClockTime = 0 s

Time = 0.152

GAMG:  Solving for f_0, Initial residual = 0.00274831, Final residual = 2.52006e-12, No Iterations 1
GAMG:  Solving for f_1, Initial residual = 0.000827485, Final residual = 1.04887e-13, No Iterations 1
GAMG:  Solving for f_2, Initial residual = 0.000796962, Final residual = 1.78302e-13, No Iterations 1
ExecutionTime = 0.21 s    ClockTime = 0 s

Time = 0.154

GAMG:  Solving for f_0, Initial residual = 0.00270037, Final residual = 2.43503e-12, No Iterations 1
GAMG:  Solving for f_1, Initial residual = 0.000817982, Final residual = 1.17722e-13, No Iterations 1
GAMG:  Solving for f_2, Initial residual = 0.000787861, Final residual = 1.81787e-13, No Iterations 1
ExecutionTime = 0.21 s    ClockTime = 0 s

Time = 0.156

GAMG:  Solving for f_0, Initial residual = 0.00265434, Final residual = 2.41008e-12, No Iterations 1
GAMG:  Solving for f_1, Initial residual = 0.000808679, Final residual = 1.12378e-13, No Iterations 1
GAMG:  Solving for f_2, Initial residual = 0.000779046, Final residual = 1.80566e-13, No Iterations 1
ExecutionTime = 0.21 s    ClockTime = 0 s

Time = 0.158

GAMG:  Solving for f_0, Initial residual = 0.00260922, Final residual = 2.59756e-12, No Iterations 1
GAMG:  Solving for f_1, Initial residual = 0.000799564, Final residual = 1.15012e-13, No Iterations 1
GAMG:  Solving for f_2, Initial residual = 0.000770384, Final residual = 1.83042e-13, No Iterations 1
ExecutionTime = 0.21 s    ClockTime = 0 s

Time = 0.16

GAMG:  Solving for f_0, Initial residual = 0.00256527, Final residual = 2.4813e-12, No Iterations 1
GAMG:  Solving for f_1, Initial residual = 0.000790783, Final residual = 1.05822e-13, No Iterations 1
GAMG:  Solving for f_2, Initial residual = 0.000761881, Final residual = 1.72053e-13, No Iterations 1
ExecutionTime = 0.21 s    ClockTime = 0 s

Time = 0.162

GAMG:  Solving for f_0, Initial residual = 0.00252274, Final residual = 2.66955e-12, No Iterations 1
GAMG:  Solving for f_1, Initial residual = 0.000782203, Final residual = 1.11333e-13, No Iterations 1
GAMG:  Solving for f_2, Initial residual = 0.000753538, Final residual = 1.82275e-13, No Iterations 1
ExecutionTime = 0.21 s    ClockTime = 0 s

Time = 0.164

GAMG:  Solving for f_0, Initial residual = 0.00248105, Final residual = 2.52222e-12, No Iterations 1
GAMG:  Solving for f_1, Initial residual = 0.000773773, Final residual = 1.07246e-13, No Iterations 1
GAMG:  Solving for f_2, Initial residual = 0.000745361, Final residual = 1.73967e-13, No Iterations 1
ExecutionTime = 0.22 s    ClockTime = 0 s

Time = 0.166

GAMG:  Solving for f_0, Initial residual = 0.0024413, Final residual = 2.69586e-12, No Iterations 1
GAMG:  Solving for f_1, Initial residual = 0.0007655, Final residual = 1.05716e-13, No Iterations 1
GAMG:  Solving for f_2, Initial residual = 0.000737332, Final residual = 1.84878e-13, No Iterations 1
ExecutionTime = 0.22 s    ClockTime = 0 s

Time = 0.168

GAMG:  Solving for f_0, Initial residual = 0.00240337, Final residual = 2.51711e-12, No Iterations 1
GAMG:  Solving for f_1, Initial residual = 0.000757404, Final residual = 1.09632e-13, No Iterations 1
GAMG:  Solving for f_2, Initial residual = 0.000729563, Final residual = 1.71834e-13, No Iterations 1
ExecutionTime = 0.22 s    ClockTime = 0 s

Time = 0.17

GAMG:  Solving for f_0, Initial residual = 0.00236611, Final residual = 2.61438e-12, No Iterations 1
GAMG:  Solving for f_1, Initial residual = 0.000749576, Final residual = 1.0778e-13, No Iterations 1
GAMG:  Solving for f_2, Initial residual = 0.000721973, Final residual = 1.85795e-13, No Iterations 1
ExecutionTime = 0.22 s    ClockTime = 0 s

Time = 0.172

GAMG:  Solving for f_0, Initial residual = 0.00232966, Final residual = 2.61949e-12, No Iterations 1
GAMG:  Solving for f_1, Initial residual = 0.000741897, Final residual = 1.05926e-13, No Iterations 1
GAMG:  Solving for f_2, Initial residual = 0.000714625, Final residual = 1.71715e-13, No Iterations 1
ExecutionTime = 0.22 s    ClockTime = 0 s

Time = 0.174

GAMG:  Solving for f_0, Initial residual = 0.00229449, Final residual = 2.70166e-12, No Iterations 1
GAMG:  Solving for f_1, Initial residual = 0.000734356, Final residual = 1.09529e-13, No Iterations 1
GAMG:  Solving for f_2, Initial residual = 0.000707477, Final residual = 1.80278e-13, No Iterations 1
ExecutionTime = 0.22 s    ClockTime = 0 s

Time = 0.176

GAMG:  Solving for f_0, Initial residual = 0.00226046, Final residual = 2.79948e-12, No Iterations 1
GAMG:  Solving for f_1, Initial residual = 0.000726947, Final residual = 1.06707e-13, No Iterations 1
GAMG:  Solving for f_2, Initial residual = 0.000700452, Final residual = 1.80391e-13, No Iterations 1
ExecutionTime = 0.22 s    ClockTime = 0 s

Time = 0.178

GAMG:  Solving for f_0, Initial residual = 0.00222721, Final residual = 2.5567e-12, No Iterations 1
GAMG:  Solving for f_1, Initial residual = 0.000719741, Final residual = 1.116e-13, No Iterations 1
GAMG:  Solving for f_2, Initial residual = 0.000693553, Final residual = 1.81519e-13, No Iterations 1
ExecutionTime = 0.23 s    ClockTime = 0 s

Time = 0.18

GAMG:  Solving for f_0, Initial residual = 0.00219454, Final residual = 2.6079e-12, No Iterations 1
GAMG:  Solving for f_1, Initial residual = 0.000712683, Final residual = 1.09417e-13, No Iterations 1
GAMG:  Solving for f_2, Initial residual = 0.000686769, Final residual = 1.75194e-13, No Iterations 1
ExecutionTime = 0.23 s    ClockTime = 0 s

Time = 0.182

GAMG:  Solving for f_0, Initial residual = 0.00216243, Final residual = 2.64367e-12, No Iterations 1
GAMG:  Solving for f_1, Initial residual = 0.000705755, Final residual = 1.04977e-13, No Iterations 1
GAMG:  Solving for f_2, Initial residual = 0.000680097, Final residual = 1.82423e-13, No Iterations 1
ExecutionTime = 0.23 s    ClockTime = 0 s

Time = 0.184

GAMG:  Solving for f_0, Initial residual = 0.00213087, Final residual = 2.5393e-12, No Iterations 1
GAMG:  Solving for f_1, Initial residual = 0.000699075, Final residual = 1.09553e-13, No Iterations 1
GAMG:  Solving for f_2, Initial residual = 0.000673533, Final residual = 1.82196e-13, No Iterations 1
ExecutionTime = 0.23 s    ClockTime = 0 s

Time = 0.186

GAMG:  Solving for f_0, Initial residual = 0.00210059, Final residual = 2.68413e-12, No Iterations 1
GAMG:  Solving for f_1, Initial residual = 0.000692507, Final residual = 1.15748e-13, No Iterations 1
GAMG:  Solving for f_2, Initial residual = 0.000667073, Final residual = 1.82985e-13, No Iterations 1
ExecutionTime = 0.23 s    ClockTime = 0 s

Time = 0.188

GAMG:  Solving for f_0, Initial residual = 0.00207078, Final residual = 2.50106e-12, No Iterations 1
GAMG:  Solving for f_1, Initial residual = 0.000686056, Final residual = 1.13561e-13, No Iterations 1
GAMG:  Solving for f_2, Initial residual = 0.000660806, Final residual = 1.76979e-13, No Iterations 1
ExecutionTime = 0.23 s    ClockTime = 0 s

Time = 0.19

GAMG:  Solving for f_0, Initial residual = 0.00204166, Final residual = 2.70872e-12, No Iterations 1
GAMG:  Solving for f_1, Initial residual = 0.000679733, Final residual = 1.146e-13, No Iterations 1
GAMG:  Solving for f_2, Initial residual = 0.00065464, Final residual = 1.83881e-13, No Iterations 1
ExecutionTime = 0.23 s    ClockTime = 0 s

Time = 0.192

GAMG:  Solving for f_0, Initial residual = 0.00201368, Final residual = 2.63466e-12, No Iterations 1
GAMG:  Solving for f_1, Initial residual = 0.000673541, Final residual = 1.11763e-13, No Iterations 1
GAMG:  Solving for f_2, Initial residual = 0.00064875, Final residual = 1.73786e-13, No Iterations 1
ExecutionTime = 0.24 s    ClockTime = 0 s

Time = 0.194

GAMG:  Solving for f_0, Initial residual = 0.00198663, Final residual = 2.73305e-12, No Iterations 1
GAMG:  Solving for f_1, Initial residual = 0.000667565, Final residual = 1.1183e-13, No Iterations 1
GAMG:  Solving for f_2, Initial residual = 0.000643004, Final residual = 1.80694e-13, No Iterations 1
ExecutionTime = 0.24 s    ClockTime = 0 s

Time = 0.196

GAMG:  Solving for f_0, Initial residual = 0.00196008, Final residual = 2.65865e-12, No Iterations 1
GAMG:  Solving for f_1, Initial residual = 0.000661679, Final residual = 1.10602e-13, No Iterations 1
GAMG:  Solving for f_2, Initial residual = 0.000637355, Final residual = 1.79097e-13, No Iterations 1
ExecutionTime = 0.24 s    ClockTime = 0 s

Time = 0.198

GAMG:  Solving for f_0, Initial residual = 0.00193389, Final residual = 2.82021e-12, No Iterations 1
GAMG:  Solving for f_1, Initial residual = 0.000655979, Final residual = 1.16815e-13, No Iterations 1
GAMG:  Solving for f_2, Initial residual = 0.000631839, Final residual = 1.80224e-13, No Iterations 1
ExecutionTime = 0.24 s    ClockTime = 0 s

Time = 0.2

GAMG:  Solving for f_0, Initial residual = 0.00190805, Final residual = 2.84009e-12, No Iterations 1
GAMG:  Solving for f_1, Initial residual = 0.000650378, Final residual = 1.11056e-13, No Iterations 1
GAMG:  Solving for f_2, Initial residual = 0.000626402, Final residual = 1.83056e-13, No Iterations 1
ExecutionTime = 0.25 s    ClockTime = 0 s

Time = 0.202

GAMG:  Solving for f_0, Initial residual = 0.00188261, Final residual = 2.78096e-12, No Iterations 1
GAMG:  Solving for f_1, Initial residual = 0.00064486, Final residual = 1.14037e-13, No Iterations 1
GAMG:  Solving for f_2, Initial residual = 0.000621046, Final residual = 1.83842e-13, No Iterations 1
ExecutionTime = 0.25 s    ClockTime = 0 s

Time = 0.204

GAMG:  Solving for f_0, Initial residual = 0.00185772, Final residual = 2.61085e-12, No Iterations 1
GAMG:  Solving for f_1, Initial residual = 0.000639452, Final residual = 1.14752e-13, No Iterations 1
GAMG:  Solving for f_2, Initial residual = 0.000615839, Final residual = 1.7473e-13, No Iterations 1
ExecutionTime = 0.25 s    ClockTime = 0 s

Time = 0.206

GAMG:  Solving for f_0, Initial residual = 0.00183376, Final residual = 2.69373e-12, No Iterations 1
GAMG:  Solving for f_1, Initial residual = 0.000634238, Final residual = 1.15143e-13, No Iterations 1
GAMG:  Solving for f_2, Initial residual = 0.000610706, Final residual = 1.79949e-13, No Iterations 1
ExecutionTime = 0.25 s    ClockTime = 0 s

Time = 0.208

GAMG:  Solving for f_0, Initial residual = 0.00181049, Final residual = 2.91955e-12, No Iterations 1
GAMG:  Solving for f_1, Initial residual = 0.000629136, Final residual = 1.13912e-13, No Iterations 1
GAMG:  Solving for f_2, Initial residual = 0.00060568, Final residual = 1.84148e-13, No Iterations 1
ExecutionTime = 0.25 s    ClockTime = 0 s

Time = 0.21

GAMG:  Solving for f_0, Initial residual = 0.00178771, Final residual = 2.71693e-12, No Iterations 1
GAMG:  Solving for f_1, Initial residual = 0.000624098, Final residual = 1.11703e-13, No Iterations 1
GAMG:  Solving for f_2, Initial residual = 0.000600799, Final residual = 1.92454e-13, No Iterations 1
ExecutionTime = 0.26 s    ClockTime = 0 s

Time = 0.212

GAMG:  Solving for f_0, Initial residual = 0.00176557, Final residual = 2.70464e-12, No Iterations 1
GAMG:  Solving for f_1, Initial residual = 0.000619126, Final residual = 1.07867e-13, No Iterations 1
GAMG:  Solving for f_2, Initial residual = 0.000595996, Final residual = 1.76485e-13, No Iterations 1
ExecutionTime = 0.26 s    ClockTime = 0 s

Time = 0.214

GAMG:  Solving for f_0, Initial residual = 0.00174375, Final residual = 2.70821e-12, No Iterations 1
GAMG:  Solving for f_1, Initial residual = 0.000614226, Final residual = 1.15403e-13, No Iterations 1
GAMG:  Solving for f_2, Initial residual = 0.000591337, Final residual = 1.83427e-13, No Iterations 1
ExecutionTime = 0.26 s    ClockTime = 0 s

Time = 0.216

GAMG:  Solving for f_0, Initial residual = 0.00172232, Final residual = 2.93506e-12, No Iterations 1
GAMG:  Solving for f_1, Initial residual = 0.000609419, Final residual = 1.14166e-13, No Iterations 1
GAMG:  Solving for f_2, Initial residual = 0.000586739, Final residual = 1.79076e-13, No Iterations 1
ExecutionTime = 0.26 s    ClockTime = 0 s

Time = 0.218

GAMG:  Solving for f_0, Initial residual = 0.00170129, Final residual = 2.74717e-12, No Iterations 1
GAMG:  Solving for f_1, Initial residual = 0.000604677, Final residual = 1.16182e-13, No Iterations 1
GAMG:  Solving for f_2, Initial residual = 0.000582197, Final residual = 1.90479e-13, No Iterations 1
ExecutionTime = 0.26 s    ClockTime = 0 s

Time = 0.22

GAMG:  Solving for f_0, Initial residual = 0.00168073, Final residual = 2.79862e-12, No Iterations 1
GAMG:  Solving for f_1, Initial residual = 0.0006, Final residual = 1.12014e-13, No Iterations 1
GAMG:  Solving for f_2, Initial residual = 0.000577707, Final residual = 1.8201e-13, No Iterations 1
ExecutionTime = 0.26 s    ClockTime = 0 s

Time = 0.222

GAMG:  Solving for f_0, Initial residual = 0.0016606, Final residual = 2.97822e-12, No Iterations 1
GAMG:  Solving for f_1, Initial residual = 0.000595385, Final residual = 1.09143e-13, No Iterations 1
GAMG:  Solving for f_2, Initial residual = 0.000573273, Final residual = 1.8725e-13, No Iterations 1
ExecutionTime = 0.26 s    ClockTime = 0 s

Time = 0.224

GAMG:  Solving for f_0, Initial residual = 0.00164075, Final residual = 2.74139e-12, No Iterations 1
GAMG:  Solving for f_1, Initial residual = 0.000590894, Final residual = 1.09855e-13, No Iterations 1
GAMG:  Solving for f_2, Initial residual = 0.000568911, Final residual = 1.82888e-13, No Iterations 1
ExecutionTime = 0.27 s    ClockTime = 0 s

Time = 0.226

GAMG:  Solving for f_0, Initial residual = 0.00162142, Final residual = 2.87311e-12, No Iterations 1
GAMG:  Solving for f_1, Initial residual = 0.000586463, Final residual = 1.12198e-13, No Iterations 1
GAMG:  Solving for f_2, Initial residual = 0.000564628, Final residual = 1.81953e-13, No Iterations 1
ExecutionTime = 0.27 s    ClockTime = 0 s

Time = 0.228

GAMG:  Solving for f_0, Initial residual = 0.00160279, Final residual = 2.68368e-12, No Iterations 1
GAMG:  Solving for f_1, Initial residual = 0.000582115, Final residual = 1.12257e-13, No Iterations 1
GAMG:  Solving for f_2, Initial residual = 0.000560401, Final residual = 1.76896e-13, No Iterations 1
ExecutionTime = 0.27 s    ClockTime = 0 s

Time = 0.23

GAMG:  Solving for f_0, Initial residual = 0.0015844, Final residual = 2.96034e-12, No Iterations 1
GAMG:  Solving for f_1, Initial residual = 0.000577872, Final residual = 1.17867e-13, No Iterations 1
GAMG:  Solving for f_2, Initial residual = 0.00055623, Final residual = 1.75957e-13, No Iterations 1
ExecutionTime = 0.27 s    ClockTime = 0 s

Time = 0.232

GAMG:  Solving for f_0, Initial residual = 0.00156659, Final residual = 2.86713e-12, No Iterations 1
GAMG:  Solving for f_1, Initial residual = 0.000573684, Final residual = 1.10415e-13, No Iterations 1
GAMG:  Solving for f_2, Initial residual = 0.000552112, Final residual = 1.80518e-13, No Iterations 1
ExecutionTime = 0.27 s    ClockTime = 0 s

Time = 0.234

GAMG:  Solving for f_0, Initial residual = 0.00154908, Final residual = 2.70916e-12, No Iterations 1
GAMG:  Solving for f_1, Initial residual = 0.000569547, Final residual = 1.1603e-13, No Iterations 1
GAMG:  Solving for f_2, Initial residual = 0.000548045, Final residual = 1.90588e-13, No Iterations 1
ExecutionTime = 0.27 s    ClockTime = 0 s

Time = 0.236

GAMG:  Solving for f_0, Initial residual = 0.0015318, Final residual = 2.76066e-12, No Iterations 1
GAMG:  Solving for f_1, Initial residual = 0.000565471, Final residual = 1.14782e-13, No Iterations 1
GAMG:  Solving for f_2, Initial residual = 0.000544035, Final residual = 1.83113e-13, No Iterations 1
ExecutionTime = 0.27 s    ClockTime = 0 s

Time = 0.238

GAMG:  Solving for f_0, Initial residual = 0.00151475, Final residual = 2.76376e-12, No Iterations 1
GAMG:  Solving for f_1, Initial residual = 0.000561488, Final residual = 1.14515e-13, No Iterations 1
GAMG:  Solving for f_2, Initial residual = 0.000540118, Final residual = 1.79071e-13, No Iterations 1
ExecutionTime = 0.28 s    ClockTime = 0 s

Time = 0.24

GAMG:  Solving for f_0, Initial residual = 0.00149797, Final residual = 2.92864e-12, No Iterations 1
GAMG:  Solving for f_1, Initial residual = 0.000557552, Final residual = 1.12284e-13, No Iterations 1
GAMG:  Solving for f_2, Initial residual = 0.000536288, Final residual = 1.81225e-13, No Iterations 1
ExecutionTime = 0.28 s    ClockTime = 0 s

Time = 0.242

GAMG:  Solving for f_0, Initial residual = 0.00148155, Final residual = 2.72128e-12, No Iterations 1
GAMG:  Solving for f_1, Initial residual = 0.000553664, Final residual = 1.13325e-13, No Iterations 1
GAMG:  Solving for f_2, Initial residual = 0.00053253, Final residual = 1.84071e-13, No Iterations 1
ExecutionTime = 0.28 s    ClockTime = 0 s

Time = 0.244

GAMG:  Solving for f_0, Initial residual = 0.00146555, Final residual = 2.74046e-12, No Iterations 1
GAMG:  Solving for f_1, Initial residual = 0.000549818, Final residual = 1.10433e-13, No Iterations 1
GAMG:  Solving for f_2, Initial residual = 0.000528816, Final residual = 1.77952e-13, No Iterations 1
ExecutionTime = 0.28 s    ClockTime = 0 s

Time = 0.246

GAMG:  Solving for f_0, Initial residual = 0.00144977, Final residual = 2.95444e-12, No Iterations 1
GAMG:  Solving for f_1, Initial residual = 0.000546012, Final residual = 1.14423e-13, No Iterations 1
GAMG:  Solving for f_2, Initial residual = 0.000525146, Final residual = 1.82869e-13, No Iterations 1
ExecutionTime = 0.28 s    ClockTime = 0 s

Time = 0.248

GAMG:  Solving for f_0, Initial residual = 0.00143426, Final residual = 3.07134e-12, No Iterations 1
GAMG:  Solving for f_1, Initial residual = 0.000542251, Final residual = 1.1284e-13, No Iterations 1
GAMG:  Solving for f_2, Initial residual = 0.000521518, Final residual = 1.74327e-13, No Iterations 1
ExecutionTime = 0.28 s    ClockTime = 0 s

Time = 0.25

GAMG:  Solving for f_0, Initial residual = 0.00141922, Final residual = 2.99324e-12, No Iterations 1
GAMG:  Solving for f_1, Initial residual = 0.000538536, Final residual = 1.15193e-13, No Iterations 1
GAMG:  Solving for f_2, Initial residual = 0.000517933, Final residual = 1.85463e-13, No Iterations 1
ExecutionTime = 0.29 s    ClockTime = 0 s

Time = 0.252

GAMG:  Solving for f_0, Initial residual = 0.00140439, Final residual = 2.80095e-12, No Iterations 1
GAMG:  Solving for f_1, Initial residual = 0.000534878, Final residual = 1.04415e-13, No Iterations 1
GAMG:  Solving for f_2, Initial residual = 0.00051439, Final residual = 1.75877e-13, No Iterations 1
ExecutionTime = 0.29 s    ClockTime = 0 s

Time = 0.254

GAMG:  Solving for f_0, Initial residual = 0.00138976, Final residual = 2.83645e-12, No Iterations 1
GAMG:  Solving for f_1, Initial residual = 0.00053131, Final residual = 1.18265e-13, No Iterations 1
GAMG:  Solving for f_2, Initial residual = 0.000510897, Final residual = 1.9048e-13, No Iterations 1
ExecutionTime = 0.3 s    ClockTime = 0 s

Time = 0.256

GAMG:  Solving for f_0, Initial residual = 0.0013753, Final residual = 2.74144e-12, No Iterations 1
GAMG:  Solving for f_1, Initial residual = 0.000527783, Final residual = 1.1668e-13, No Iterations 1
GAMG:  Solving for f_2, Initial residual = 0.000507455, Final residual = 1.85726e-13, No Iterations 1
ExecutionTime = 0.3 s    ClockTime = 0 s

Time = 0.258

GAMG:  Solving for f_0, Initial residual = 0.00136113, Final residual = 2.85856e-12, No Iterations 1
GAMG:  Solving for f_1, Initial residual = 0.000524296, Final residual = 1.18711e-13, No Iterations 1
GAMG:  Solving for f_2, Initial residual = 0.00050405, Final residual = 1.85466e-13, No Iterations 1
ExecutionTime = 0.3 s    ClockTime = 0 s

Time = 0.26

GAMG:  Solving for f_0, Initial residual = 0.00134724, Final residual = 2.84508e-12, No Iterations 1
GAMG:  Solving for f_1, Initial residual = 0.000520849, Final residual = 1.11202e-13, No Iterations 1
GAMG:  Solving for f_2, Initial residual = 0.000500702, Final residual = 1.87282e-13, No Iterations 1
ExecutionTime = 0.3 s    ClockTime = 0 s

Time = 0.262

GAMG:  Solving for f_0, Initial residual = 0.00133359, Final residual = 2.97885e-12, No Iterations 1
GAMG:  Solving for f_1, Initial residual = 0.000517455, Final residual = 1.16523e-13, No Iterations 1
GAMG:  Solving for f_2, Initial residual = 0.000497455, Final residual = 1.84597e-13, No Iterations 1
ExecutionTime = 0.3 s    ClockTime = 0 s

Time = 0.264

GAMG:  Solving for f_0, Initial residual = 0.00132019, Final residual = 2.99816e-12, No Iterations 1
GAMG:  Solving for f_1, Initial residual = 0.00051414, Final residual = 1.10321e-13, No Iterations 1
GAMG:  Solving for f_2, Initial residual = 0.000494261, Final residual = 1.74287e-13, No Iterations 1
ExecutionTime = 0.3 s    ClockTime = 0 s

Time = 0.266

GAMG:  Solving for f_0, Initial residual = 0.00130699, Final residual = 2.95188e-12, No Iterations 1
GAMG:  Solving for f_1, Initial residual = 0.00051086, Final residual = 1.15975e-13, No Iterations 1
GAMG:  Solving for f_2, Initial residual = 0.000491101, Final residual = 1.84766e-13, No Iterations 1
ExecutionTime = 0.3 s    ClockTime = 0 s

Time = 0.268

GAMG:  Solving for f_0, Initial residual = 0.00129406, Final residual = 2.87266e-12, No Iterations 1
GAMG:  Solving for f_1, Initial residual = 0.000507615, Final residual = 1.13393e-13, No Iterations 1
GAMG:  Solving for f_2, Initial residual = 0.00048802, Final residual = 1.79995e-13, No Iterations 1
ExecutionTime = 0.31 s    ClockTime = 0 s

Time = 0.27

GAMG:  Solving for f_0, Initial residual = 0.00128141, Final residual = 2.85897e-12, No Iterations 1
GAMG:  Solving for f_1, Initial residual = 0.000504431, Final residual = 1.18393e-13, No Iterations 1
GAMG:  Solving for f_2, Initial residual = 0.000484983, Final residual = 1.76954e-13, No Iterations 1
ExecutionTime = 0.31 s    ClockTime = 0 s

Time = 0.272

GAMG:  Solving for f_0, Initial residual = 0.00126905, Final residual = 2.7959e-12, No Iterations 1
GAMG:  Solving for f_1, Initial residual = 0.000501288, Final residual = 1.17129e-13, No Iterations 1
GAMG:  Solving for f_2, Initial residual = 0.000481977, Final residual = 1.90573e-13, No Iterations 1
ExecutionTime = 0.31 s    ClockTime = 0 s

Time = 0.274

GAMG:  Solving for f_0, Initial residual = 0.00125695, Final residual = 2.74913e-12, No Iterations 1
GAMG:  Solving for f_1, Initial residual = 0.000498177, Final residual = 1.11573e-13, No Iterations 1
GAMG:  Solving for f_2, Initial residual = 0.000478998, Final residual = 1.89963e-13, No Iterations 1
ExecutionTime = 0.31 s    ClockTime = 0 s

Time = 0.276

GAMG:  Solving for f_0, Initial residual = 0.00124501, Final residual = 2.96589e-12, No Iterations 1
GAMG:  Solving for f_1, Initial residual = 0.000495133, Final residual = 1.14267e-13, No Iterations 1
GAMG:  Solving for f_2, Initial residual = 0.000476045, Final residual = 1.85877e-13, No Iterations 1
ExecutionTime = 0.31 s    ClockTime = 0 s

Time = 0.278

GAMG:  Solving for f_0, Initial residual = 0.00123342, Final residual = 2.82019e-12, No Iterations 1
GAMG:  Solving for f_1, Initial residual = 0.000492159, Final residual = 1.2192e-13, No Iterations 1
GAMG:  Solving for f_2, Initial residual = 0.000473122, Final residual = 1.85611e-13, No Iterations 1
ExecutionTime = 0.32 s    ClockTime = 0 s

Time = 0.28

GAMG:  Solving for f_0, Initial residual = 0.00122196, Final residual = 2.75674e-12, No Iterations 1
GAMG:  Solving for f_1, Initial residual = 0.000489215, Final residual = 1.15035e-13, No Iterations 1
GAMG:  Solving for f_2, Initial residual = 0.000470229, Final residual = 1.84301e-13, No Iterations 1
ExecutionTime = 0.32 s    ClockTime = 0 s

Time = 0.282

GAMG:  Solving for f_0, Initial residual = 0.0012108, Final residual = 2.8088e-12, No Iterations 1
GAMG:  Solving for f_1, Initial residual = 0.000486296, Final residual = 1.19057e-13, No Iterations 1
GAMG:  Solving for f_2, Initial residual = 0.000467364, Final residual = 1.89251e-13, No Iterations 1
ExecutionTime = 0.32 s    ClockTime = 0 s

Time = 0.284

GAMG:  Solving for f_0, Initial residual = 0.00119977, Final residual = 2.894e-12, No Iterations 1
GAMG:  Solving for f_1, Initial residual = 0.000483402, Final residual = 1.13486e-13, No Iterations 1
GAMG:  Solving for f_2, Initial residual = 0.000464528, Final residual = 1.87245e-13, No Iterations 1
ExecutionTime = 0.32 s    ClockTime = 0 s

Time = 0.286

GAMG:  Solving for f_0, Initial residual = 0.00118886, Final residual = 3.11174e-12, No Iterations 1
GAMG:  Solving for f_1, Initial residual = 0.000480536, Final residual = 1.20818e-13, No Iterations 1
GAMG:  Solving for f_2, Initial residual = 0.000461743, Final residual = 1.88371e-13, No Iterations 1
ExecutionTime = 0.32 s    ClockTime = 0 s

Time = 0.288

GAMG:  Solving for f_0, Initial residual = 0.00117806, Final residual = 2.76658e-12, No Iterations 1
GAMG:  Solving for f_1, Initial residual = 0.000477697, Final residual = 1.19547e-13, No Iterations 1
GAMG:  Solving for f_2, Initial residual = 0.000459014, Final residual = 1.84621e-13, No Iterations 1
ExecutionTime = 0.32 s    ClockTime = 0 s

Time = 0.29

GAMG:  Solving for f_0, Initial residual = 0.00116738, Final residual = 2.96797e-12, No Iterations 1
GAMG:  Solving for f_1, Initial residual = 0.000474901, Final residual = 1.25232e-13, No Iterations 1
GAMG:  Solving for f_2, Initial residual = 0.000456356, Final residual = 1.87489e-13, No Iterations 1
ExecutionTime = 0.33 s    ClockTime = 0 s

Time = 0.292

GAMG:  Solving for f_0, Initial residual = 0.00115682, Final residual = 3.05351e-12, No Iterations 1
GAMG:  Solving for f_1, Initial residual = 0.000472151, Final residual = 1.17664e-13, No Iterations 1
GAMG:  Solving for f_2, Initial residual = 0.000453759, Final residual = 1.78156e-13, No Iterations 1
ExecutionTime = 0.33 s    ClockTime = 0 s

Time = 0.294

GAMG:  Solving for f_0, Initial residual = 0.00114642, Final residual = 3.08934e-12, No Iterations 1
GAMG:  Solving for f_1, Initial residual = 0.000469428, Final residual = 1.21032e-13, No Iterations 1
GAMG:  Solving for f_2, Initial residual = 0.000451184, Final residual = 1.89393e-13, No Iterations 1
ExecutionTime = 0.33 s    ClockTime = 0 s

Time = 0.296

GAMG:  Solving for f_0, Initial residual = 0.00113619, Final residual = 2.92573e-12, No Iterations 1
GAMG:  Solving for f_1, Initial residual = 0.00046673, Final residual = 1.20754e-13, No Iterations 1
GAMG:  Solving for f_2, Initial residual = 0.000448628, Final residual = 1.87727e-13, No Iterations 1
ExecutionTime = 0.33 s    ClockTime = 0 s

Time = 0.298

GAMG:  Solving for f_0, Initial residual = 0.00112622, Final residual = 2.97811e-12, No Iterations 1
GAMG:  Solving for f_1, Initial residual = 0.000464057, Final residual = 1.24458e-13, No Iterations 1
GAMG:  Solving for f_2, Initial residual = 0.000446095, Final residual = 1.87456e-13, No Iterations 1
ExecutionTime = 0.33 s    ClockTime = 0 s

Time = 0.3

GAMG:  Solving for f_0, Initial residual = 0.00111641, Final residual = 3.19706e-12, No Iterations 1
GAMG:  Solving for f_1, Initial residual = 0.00046141, Final residual = 1.28165e-13, No Iterations 1
GAMG:  Solving for f_2, Initial residual = 0.000443586, Final residual = 1.86486e-13, No Iterations 1
ExecutionTime = 0.34 s    ClockTime = 0 s

Time = 0.302

GAMG:  Solving for f_0, Initial residual = 0.00110673, Final residual = 3.03306e-12, No Iterations 1
GAMG:  Solving for f_1, Initial residual = 0.000458783, Final residual = 1.27223e-13, No Iterations 1
GAMG:  Solving for f_2, Initial residual = 0.000441099, Final residual = 1.86563e-13, No Iterations 1
ExecutionTime = 0.34 s    ClockTime = 0 s

Time = 0.304

GAMG:  Solving for f_0, Initial residual = 0.00109716, Final residual = 3.35244e-12, No Iterations 1
GAMG:  Solving for f_1, Initial residual = 0.000456217, Final residual = 1.22624e-13, No Iterations 1
GAMG:  Solving for f_2, Initial residual = 0.000438634, Final residual = 1.89786e-13, No Iterations 1
ExecutionTime = 0.34 s    ClockTime = 0 s

Time = 0.306

GAMG:  Solving for f_0, Initial residual = 0.00108767, Final residual = 3.10479e-12, No Iterations 1
GAMG:  Solving for f_1, Initial residual = 0.000453697, Final residual = 1.30323e-13, No Iterations 1
GAMG:  Solving for f_2, Initial residual = 0.000436192, Final residual = 1.89165e-13, No Iterations 1
ExecutionTime = 0.35 s    ClockTime = 0 s

Time = 0.308

GAMG:  Solving for f_0, Initial residual = 0.00107832, Final residual = 2.99035e-12, No Iterations 1
GAMG:  Solving for f_1, Initial residual = 0.0004512, Final residual = 1.27384e-13, No Iterations 1
GAMG:  Solving for f_2, Initial residual = 0.000433772, Final residual = 1.85745e-13, No Iterations 1
ExecutionTime = 0.35 s    ClockTime = 0 s

Time = 0.31

GAMG:  Solving for f_0, Initial residual = 0.00106916, Final residual = 3.19337e-12, No Iterations 1
GAMG:  Solving for f_1, Initial residual = 0.000448739, Final residual = 1.38751e-13, No Iterations 1
GAMG:  Solving for f_2, Initial residual = 0.000431387, Final residual = 1.9142e-13, No Iterations 1
ExecutionTime = 0.35 s    ClockTime = 0 s

Time = 0.312

GAMG:  Solving for f_0, Initial residual = 0.0010601, Final residual = 3.12898e-12, No Iterations 1
GAMG:  Solving for f_1, Initial residual = 0.00044632, Final residual = 1.41139e-13, No Iterations 1
GAMG:  Solving for f_2, Initial residual = 0.000429045, Final residual = 1.89048e-13, No Iterations 1
ExecutionTime = 0.35 s    ClockTime = 0 s

Time = 0.314

GAMG:  Solving for f_0, Initial residual = 0.00105112, Final residual = 3.03096e-12, No Iterations 1
GAMG:  Solving for f_1, Initial residual = 0.000443926, Final residual = 1.47859e-13, No Iterations 1
GAMG:  Solving for f_2, Initial residual = 0.000426721, Final residual = 1.88775e-13, No Iterations 1
ExecutionTime = 0.35 s    ClockTime = 0 s

Time = 0.316

GAMG:  Solving for f_0, Initial residual = 0.00104223, Final residual = 3.25119e-12, No Iterations 1
GAMG:  Solving for f_1, Initial residual = 0.000441554, Final residual = 1.49254e-13, No Iterations 1
GAMG:  Solving for f_2, Initial residual = 0.000424422, Final residual = 1.96909e-13, No Iterations 1
ExecutionTime = 0.35 s    ClockTime = 0 s

Time = 0.318

GAMG:  Solving for f_0, Initial residual = 0.00103343, Final residual = 3.23694e-12, No Iterations 1
GAMG:  Solving for f_1, Initial residual = 0.000439201, Final residual = 1.52316e-13, No Iterations 1
GAMG:  Solving for f_2, Initial residual = 0.000422161, Final residual = 2.0645e-13, No Iterations 1
ExecutionTime = 0.35 s    ClockTime = 0 s

Time = 0.32

GAMG:  Solving for f_0, Initial residual = 0.00102474, Final residual = 3.00444e-12, No Iterations 1
GAMG:  Solving for f_1, Initial residual = 0.000436866, Final residual = 1.54712e-13, No Iterations 1
GAMG:  Solving for f_2, Initial residual = 0.00041992, Final residual = 1.90051e-13, No Iterations 1
ExecutionTime = 0.35 s    ClockTime = 0 s

Time = 0.322

GAMG:  Solving for f_0, Initial residual = 0.00101645, Final residual = 2.90594e-12, No Iterations 1
GAMG:  Solving for f_1, Initial residual = 0.000434548, Final residual = 1.74455e-13, No Iterations 1
GAMG:  Solving for f_2, Initial residual = 0.000417707, Final residual = 1.97142e-13, No Iterations 1
ExecutionTime = 0.36 s    ClockTime = 0 s

Time = 0.324

GAMG:  Solving for f_0, Initial residual = 0.00100838, Final residual = 3.21072e-12, No Iterations 1
GAMG:  Solving for f_1, Initial residual = 0.000432246, Final residual = 1.68851e-13, No Iterations 1
GAMG:  Solving for f_2, Initial residual = 0.000415516, Final residual = 2.02132e-13, No Iterations 1
ExecutionTime = 0.36 s    ClockTime = 0 s

Time = 0.326

GAMG:  Solving for f_0, Initial residual = 0.00100042, Final residual = 3.02807e-12, No Iterations 1
GAMG:  Solving for f_1, Initial residual = 0.00042998, Final residual = 1.73925e-13, No Iterations 1
GAMG:  Solving for f_2, Initial residual = 0.000413342, Final residual = 2.10989e-13, No Iterations 1
ExecutionTime = 0.36 s    ClockTime = 0 s

Time = 0.328

GAMG:  Solving for f_0, Initial residual = 0.000992638, Final residual = 3.06395e-12, No Iterations 1
GAMG:  Solving for f_1, Initial residual = 0.000427749, Final residual = 1.79337e-13, No Iterations 1
GAMG:  Solving for f_2, Initial residual = 0.000411188, Final residual = 2.1072e-13, No Iterations 1
ExecutionTime = 0.36 s    ClockTime = 0 s

Time = 0.33

GAMG:  Solving for f_0, Initial residual = 0.000984915, Final residual = 3.18406e-12, No Iterations 1
GAMG:  Solving for f_1, Initial residual = 0.000425536, Final residual = 1.94775e-13, No Iterations 1
GAMG:  Solving for f_2, Initial residual = 0.000409085, Final residual = 2.13965e-13, No Iterations 1
ExecutionTime = 0.36 s    ClockTime = 0 s

Time = 0.332

GAMG:  Solving for f_0, Initial residual = 0.000977261, Final residual = 3.45605e-12, No Iterations 1
GAMG:  Solving for f_1, Initial residual = 0.000423342, Final residual = 2.06215e-13, No Iterations 1
GAMG:  Solving for f_2, Initial residual = 0.000406999, Final residual = 2.23187e-13, No Iterations 1
ExecutionTime = 0.36 s    ClockTime = 0 s

Time = 0.334

GAMG:  Solving for f_0, Initial residual = 0.000969675, Final residual = 3.05359e-12, No Iterations 1
GAMG:  Solving for f_1, Initial residual = 0.00042119, Final residual = 2.22011e-13, No Iterations 1
GAMG:  Solving for f_2, Initial residual = 0.000404929, Final residual = 2.2222e-13, No Iterations 1
ExecutionTime = 0.37 s    ClockTime = 0 s

Time = 0.336

GAMG:  Solving for f_0, Initial residual = 0.000962157, Final residual = 3.22454e-12, No Iterations 1
GAMG:  Solving for f_1, Initial residual = 0.000419073, Final residual = 2.26781e-13, No Iterations 1
GAMG:  Solving for f_2, Initial residual = 0.000402873, Final residual = 2.29692e-13, No Iterations 1
ExecutionTime = 0.37 s    ClockTime = 0 s

Time = 0.338

GAMG:  Solving for f_0, Initial residual = 0.000954707, Final residual = 3.22677e-12, No Iterations 1
GAMG:  Solving for f_1, Initial residual = 0.000416985, Final residual = 2.44269e-13, No Iterations 1
GAMG:  Solving for f_2, Initial residual = 0.00040084, Final residual = 2.28723e-13, No Iterations 1
ExecutionTime = 0.37 s    ClockTime = 0 s

Time = 0.34

GAMG:  Solving for f_0, Initial residual = 0.000947358, Final residual = 3.17826e-12, No Iterations 1
GAMG:  Solving for f_1, Initial residual = 0.000414914, Final residual = 2.5742e-13, No Iterations 1
GAMG:  Solving for f_2, Initial residual = 0.000398841, Final residual = 2.4641e-13, No Iterations 1
ExecutionTime = 0.37 s    ClockTime = 0 s

Time = 0.342

GAMG:  Solving for f_0, Initial residual = 0.000940103, Final residual = 3.18043e-12, No Iterations 1
GAMG:  Solving for f_1, Initial residual = 0.000412865, Final residual = 2.80626e-13, No Iterations 1
GAMG:  Solving for f_2, Initial residual = 0.000396859, Final residual = 2.54602e-13, No Iterations 1
ExecutionTime = 0.37 s    ClockTime = 0 s

Time = 0.344

GAMG:  Solving for f_0, Initial residual = 0.000932912, Final residual = 2.97943e-12, No Iterations 1
GAMG:  Solving for f_1, Initial residual = 0.000410838, Final residual = 2.92124e-13, No Iterations 1
GAMG:  Solving for f_2, Initial residual = 0.000394919, Final residual = 2.51527e-13, No Iterations 1
ExecutionTime = 0.37 s    ClockTime = 0 s

Time = 0.346

GAMG:  Solving for f_0, Initial residual = 0.000925786, Final residual = 3.25247e-12, No Iterations 1
GAMG:  Solving for f_1, Initial residual = 0.000408825, Final residual = 3.15693e-13, No Iterations 1
GAMG:  Solving for f_2, Initial residual = 0.000393015, Final residual = 2.72414e-13, No Iterations 1
ExecutionTime = 0.38 s    ClockTime = 0 s

Time = 0.348

GAMG:  Solving for f_0, Initial residual = 0.00091875, Final residual = 3.32244e-12, No Iterations 1
GAMG:  Solving for f_1, Initial residual = 0.000406827, Final residual = 3.37268e-13, No Iterations 1
GAMG:  Solving for f_2, Initial residual = 0.000391129, Final residual = 2.67228e-13, No Iterations 1
ExecutionTime = 0.38 s    ClockTime = 0 s

Time = 0.35

GAMG:  Solving for f_0, Initial residual = 0.000911884, Final residual = 3.00235e-12, No Iterations 1
GAMG:  Solving for f_1, Initial residual = 0.000404849, Final residual = 3.77641e-13, No Iterations 1
GAMG:  Solving for f_2, Initial residual = 0.000389256, Final residual = 2.74382e-13, No Iterations 1
ExecutionTime = 0.39 s    ClockTime = 0 s

Time = 0.352

GAMG:  Solving for f_0, Initial residual = 0.000905104, Final residual = 3.22498e-12, No Iterations 1
GAMG:  Solving for f_1, Initial residual = 0.000402888, Final residual = 3.96571e-13, No Iterations 1
GAMG:  Solving for f_2, Initial residual = 0.000387398, Final residual = 2.88244e-13, No Iterations 1
ExecutionTime = 0.39 s    ClockTime = 0 s

Time = 0.354

GAMG:  Solving for f_0, Initial residual = 0.000898385, Final residual = 3.26104e-12, No Iterations 1
GAMG:  Solving for f_1, Initial residual = 0.000400942, Final residual = 4.35653e-13, No Iterations 1
GAMG:  Solving for f_2, Initial residual = 0.000385553, Final residual = 3.03175e-13, No Iterations 1
ExecutionTime = 0.39 s    ClockTime = 0 s

Time = 0.356

GAMG:  Solving for f_0, Initial residual = 0.000891724, Final residual = 3.16118e-12, No Iterations 1
GAMG:  Solving for f_1, Initial residual = 0.000399018, Final residual = 4.67377e-13, No Iterations 1
GAMG:  Solving for f_2, Initial residual = 0.000383722, Final residual = 3.09644e-13, No Iterations 1
ExecutionTime = 0.39 s    ClockTime = 0 s

Time = 0.358

GAMG:  Solving for f_0, Initial residual = 0.000885111, Final residual = 3.26521e-12, No Iterations 1
GAMG:  Solving for f_1, Initial residual = 0.000397127, Final residual = 5.07187e-13, No Iterations 1
GAMG:  Solving for f_2, Initial residual = 0.000381902, Final residual = 3.35895e-13, No Iterations 1
ExecutionTime = 0.39 s    ClockTime = 0 s

Time = 0.36

GAMG:  Solving for f_0, Initial residual = 0.000878544, Final residual = 2.99495e-12, No Iterations 1
GAMG:  Solving for f_1, Initial residual = 0.00039525, Final residual = 5.47026e-13, No Iterations 1
GAMG:  Solving for f_2, Initial residual = 0.000380101, Final residual = 3.42376e-13, No Iterations 1
ExecutionTime = 0.39 s    ClockTime = 0 s

Time = 0.362

GAMG:  Solving for f_0, Initial residual = 0.000872076, Final residual = 3.133e-12, No Iterations 1
GAMG:  Solving for f_1, Initial residual = 0.000393389, Final residual = 6.02356e-13, No Iterations 1
GAMG:  Solving for f_2, Initial residual = 0.000378323, Final residual = 3.68655e-13, No Iterations 1
ExecutionTime = 0.4 s    ClockTime = 0 s

Time = 0.364

GAMG:  Solving for f_0, Initial residual = 0.000865711, Final residual = 3.27119e-12, No Iterations 1
GAMG:  Solving for f_1, Initial residual = 0.000391555, Final residual = 6.47303e-13, No Iterations 1
GAMG:  Solving for f_2, Initial residual = 0.000376577, Final residual = 3.81517e-13, No Iterations 1
ExecutionTime = 0.4 s    ClockTime = 0 s

Time = 0.366

GAMG:  Solving for f_0, Initial residual = 0.000859457, Final residual = 3.11973e-12, No Iterations 1
GAMG:  Solving for f_1, Initial residual = 0.000389732, Final residual = 7.05398e-13, No Iterations 1
GAMG:  Solving for f_2, Initial residual = 0.000374845, Final residual = 4.13134e-13, No Iterations 1
ExecutionTime = 0.4 s    ClockTime = 0 s

Time = 0.368

GAMG:  Solving for f_0, Initial residual = 0.000853278, Final residual = 3.1216e-12, No Iterations 1
GAMG:  Solving for f_1, Initial residual = 0.00038792, Final residual = 7.59493e-13, No Iterations 1
GAMG:  Solving for f_2, Initial residual = 0.000373125, Final residual = 4.37343e-13, No Iterations 1
ExecutionTime = 0.4 s    ClockTime = 0 s

Time = 0.37

GAMG:  Solving for f_0, Initial residual = 0.000847148, Final residual = 3.17464e-12, No Iterations 1
GAMG:  Solving for f_1, Initial residual = 0.000386122, Final residual = 8.23052e-13, No Iterations 1
GAMG:  Solving for f_2, Initial residual = 0.000371418, Final residual = 4.6334e-13, No Iterations 1
ExecutionTime = 0.4 s    ClockTime = 0 s

Time = 0.372

GAMG:  Solving for f_0, Initial residual = 0.000841059, Final residual = 3.14231e-12, No Iterations 1
GAMG:  Solving for f_1, Initial residual = 0.000384336, Final residual = 8.9979e-13, No Iterations 1
GAMG:  Solving for f_2, Initial residual = 0.000369722, Final residual = 4.97852e-13, No Iterations 1
ExecutionTime = 0.4 s    ClockTime = 0 s

Time = 0.374

GAMG:  Solving for f_0, Initial residual = 0.000835012, Final residual = 3.38329e-12, No Iterations 1
GAMG:  Solving for f_1, Initial residual = 0.000382581, Final residual = 9.81298e-13, No Iterations 1
GAMG:  Solving for f_2, Initial residual = 0.000368039, Final residual = 5.2566e-13, No Iterations 1
ExecutionTime = 0.4 s    ClockTime = 0 s

Time = 0.376

GAMG:  Solving for f_0, Initial residual = 0.000829049, Final residual = 3.16292e-12, No Iterations 1
GAMG:  Solving for f_1, Initial residual = 0.000380839, Final residual = 1.05882e-12, No Iterations 1
GAMG:  Solving for f_2, Initial residual = 0.000366367, Final residual = 5.60572e-13, No Iterations 1
ExecutionTime = 0.41 s    ClockTime = 0 s

Time = 0.378

GAMG:  Solving for f_0, Initial residual = 0.00082329, Final residual = 3.07914e-12, No Iterations 1
GAMG:  Solving for f_1, Initial residual = 0.000379119, Final residual = 1.14988e-12, No Iterations 1
GAMG:  Solving for f_2, Initial residual = 0.000364705, Final residual = 5.94088e-13, No Iterations 1
ExecutionTime = 0.41 s    ClockTime = 0 s

Time = 0.38

GAMG:  Solving for f_0, Initial residual = 0.000817603, Final residual = 3.32045e-12, No Iterations 1
GAMG:  Solving for f_1, Initial residual = 0.000377423, Final residual = 1.24539e-12, No Iterations 1
GAMG:  Solving for f_2, Initial residual = 0.000363053, Final residual = 6.35426e-13, No Iterations 1
ExecutionTime = 0.41 s    ClockTime = 0 s

Time = 0.382

GAMG:  Solving for f_0, Initial residual = 0.000812055, Final residual = 3.11676e-12, No Iterations 1
GAMG:  Solving for f_1, Initial residual = 0.000375741, Final residual = 1.3548e-12, No Iterations 1
GAMG:  Solving for f_2, Initial residual = 0.00036141, Final residual = 6.77497e-13, No Iterations 1
ExecutionTime = 0.41 s    ClockTime = 0 s

Time = 0.384

GAMG:  Solving for f_0, Initial residual = 0.000806569, Final residual = 3.27266e-12, No Iterations 1
GAMG:  Solving for f_1, Initial residual = 0.00037408, Final residual = 1.46969e-12, No Iterations 1
GAMG:  Solving for f_2, Initial residual = 0.000359778, Final residual = 7.29884e-13, No Iterations 1
ExecutionTime = 0.41 s    ClockTime = 0 s

Time = 0.386

GAMG:  Solving for f_0, Initial residual = 0.000801138, Final residual = 3.20585e-12, No Iterations 1
GAMG:  Solving for f_1, Initial residual = 0.000372429, Final residual = 1.5958e-12, No Iterations 1
GAMG:  Solving for f_2, Initial residual = 0.000358157, Final residual = 7.80886e-13, No Iterations 1
ExecutionTime = 0.41 s    ClockTime = 0 s

Time = 0.388

GAMG:  Solving for f_0, Initial residual = 0.000795784, Final residual = 3.13896e-12, No Iterations 1
GAMG:  Solving for f_1, Initial residual = 0.000370789, Final residual = 1.7274e-12, No Iterations 1
GAMG:  Solving for f_2, Initial residual = 0.000356548, Final residual = 8.30502e-13, No Iterations 1
ExecutionTime = 0.41 s    ClockTime = 0 s

Time = 0.39

GAMG:  Solving for f_0, Initial residual = 0.000790479, Final residual = 3.14063e-12, No Iterations 1
GAMG:  Solving for f_1, Initial residual = 0.000369157, Final residual = 1.87157e-12, No Iterations 1
GAMG:  Solving for f_2, Initial residual = 0.00035495, Final residual = 8.91161e-13, No Iterations 1
ExecutionTime = 0.42 s    ClockTime = 0 s

Time = 0.392

GAMG:  Solving for f_0, Initial residual = 0.000785214, Final residual = 3.22814e-12, No Iterations 1
GAMG:  Solving for f_1, Initial residual = 0.000367536, Final residual = 2.02429e-12, No Iterations 1
GAMG:  Solving for f_2, Initial residual = 0.000353367, Final residual = 9.61454e-13, No Iterations 1
ExecutionTime = 0.42 s    ClockTime = 0 s

Time = 0.394

GAMG:  Solving for f_0, Initial residual = 0.000779988, Final residual = 3.09239e-12, No Iterations 1
GAMG:  Solving for f_1, Initial residual = 0.000365933, Final residual = 2.1876e-12, No Iterations 1
GAMG:  Solving for f_2, Initial residual = 0.000351813, Final residual = 1.04459e-12, No Iterations 1
ExecutionTime = 0.42 s    ClockTime = 0 s

Time = 0.396

GAMG:  Solving for f_0, Initial residual = 0.000774802, Final residual = 3.05963e-12, No Iterations 1
GAMG:  Solving for f_1, Initial residual = 0.000364342, Final residual = 2.35473e-12, No Iterations 1
GAMG:  Solving for f_2, Initial residual = 0.00035027, Final residual = 1.11711e-12, No Iterations 1
ExecutionTime = 0.42 s    ClockTime = 0 s

Time = 0.398

GAMG:  Solving for f_0, Initial residual = 0.000769655, Final residual = 3.04402e-12, No Iterations 1
GAMG:  Solving for f_1, Initial residual = 0.000362772, Final residual = 2.55378e-12, No Iterations 1
GAMG:  Solving for f_2, Initial residual = 0.000348754, Final residual = 1.20106e-12, No Iterations 1
ExecutionTime = 0.42 s    ClockTime = 0 s

Time = 0.4

GAMG:  Solving for f_0, Initial residual = 0.000764546, Final residual = 3.04558e-12, No Iterations 1
GAMG:  Solving for f_1, Initial residual = 0.000361215, Final residual = 2.75195e-12, No Iterations 1
GAMG:  Solving for f_2, Initial residual = 0.000347251, Final residual = 1.27974e-12, No Iterations 1
ExecutionTime = 0.43 s    ClockTime = 0 s

Time = 0.402

GAMG:  Solving for f_0, Initial residual = 0.000759471, Final residual = 3.06434e-12, No Iterations 1
GAMG:  Solving for f_1, Initial residual = 0.000359669, Final residual = 2.96312e-12, No Iterations 1
GAMG:  Solving for f_2, Initial residual = 0.000345764, Final residual = 1.37625e-12, No Iterations 1
ExecutionTime = 0.44 s    ClockTime = 0 s

Time = 0.404

GAMG:  Solving for f_0, Initial residual = 0.00075443, Final residual = 3.42756e-12, No Iterations 1
GAMG:  Solving for f_1, Initial residual = 0.000358133, Final residual = 3.19306e-12, No Iterations 1
GAMG:  Solving for f_2, Initial residual = 0.000344297, Final residual = 1.47105e-12, No Iterations 1
ExecutionTime = 0.44 s    ClockTime = 0 s

Time = 0.406

GAMG:  Solving for f_0, Initial residual = 0.000749502, Final residual = 3.15352e-12, No Iterations 1
GAMG:  Solving for f_1, Initial residual = 0.00035661, Final residual = 3.44315e-12, No Iterations 1
GAMG:  Solving for f_2, Initial residual = 0.000342845, Final residual = 1.58157e-12, No Iterations 1
ExecutionTime = 0.44 s    ClockTime = 0 s

Time = 0.408

GAMG:  Solving for f_0, Initial residual = 0.000744628, Final residual = 3.13782e-12, No Iterations 1
GAMG:  Solving for f_1, Initial residual = 0.000355117, Final residual = 3.69374e-12, No Iterations 1
GAMG:  Solving for f_2, Initial residual = 0.000341401, Final residual = 1.69786e-12, No Iterations 1
ExecutionTime = 0.44 s    ClockTime = 0 s

Time = 0.41

GAMG:  Solving for f_0, Initial residual = 0.000739812, Final residual = 3.05309e-12, No Iterations 1
GAMG:  Solving for f_1, Initial residual = 0.000353634, Final residual = 3.97501e-12, No Iterations 1
GAMG:  Solving for f_2, Initial residual = 0.000339966, Final residual = 1.83061e-12, No Iterations 1
ExecutionTime = 0.44 s    ClockTime = 0 s

Time = 0.412

GAMG:  Solving for f_0, Initial residual = 0.000735031, Final residual = 3.22714e-12, No Iterations 1
GAMG:  Solving for f_1, Initial residual = 0.000352176, Final residual = 4.26696e-12, No Iterations 1
GAMG:  Solving for f_2, Initial residual = 0.000338541, Final residual = 1.96737e-12, No Iterations 1
ExecutionTime = 0.44 s    ClockTime = 0 s

Time = 0.414

GAMG:  Solving for f_0, Initial residual = 0.000730285, Final residual = 3.21141e-12, No Iterations 1
GAMG:  Solving for f_1, Initial residual = 0.000350727, Final residual = 4.58249e-12, No Iterations 1
GAMG:  Solving for f_2, Initial residual = 0.000337125, Final residual = 2.09566e-12, No Iterations 1
ExecutionTime = 0.45 s    ClockTime = 0 s

Time = 0.416

GAMG:  Solving for f_0, Initial residual = 0.000725582, Final residual = 3.26476e-12, No Iterations 1
GAMG:  Solving for f_1, Initial residual = 0.000349286, Final residual = 4.91112e-12, No Iterations 1
GAMG:  Solving for f_2, Initial residual = 0.000335738, Final residual = 2.24793e-12, No Iterations 1
ExecutionTime = 0.45 s    ClockTime = 0 s

Time = 0.418

GAMG:  Solving for f_0, Initial residual = 0.00072094, Final residual = 3.52554e-12, No Iterations 1
GAMG:  Solving for f_1, Initial residual = 0.000347855, Final residual = 5.27018e-12, No Iterations 1
GAMG:  Solving for f_2, Initial residual = 0.000334366, Final residual = 2.41635e-12, No Iterations 1
ExecutionTime = 0.45 s    ClockTime = 0 s

Time = 0.42

GAMG:  Solving for f_0, Initial residual = 0.000716365, Final residual = 3.23326e-12, No Iterations 1
GAMG:  Solving for f_1, Initial residual = 0.000346432, Final residual = 5.63456e-12, No Iterations 1
GAMG:  Solving for f_2, Initial residual = 0.000333001, Final residual = 2.58025e-12, No Iterations 1
ExecutionTime = 0.45 s    ClockTime = 0 s

Time = 0.422

GAMG:  Solving for f_0, Initial residual = 0.000711823, Final residual = 3.23477e-12, No Iterations 1
GAMG:  Solving for f_1, Initial residual = 0.000345019, Final residual = 6.03145e-12, No Iterations 1
GAMG:  Solving for f_2, Initial residual = 0.000331646, Final residual = 2.76709e-12, No Iterations 1
ExecutionTime = 0.45 s    ClockTime = 0 s

Time = 0.424

GAMG:  Solving for f_0, Initial residual = 0.000707317, Final residual = 3.40933e-12, No Iterations 1
GAMG:  Solving for f_1, Initial residual = 0.000343614, Final residual = 6.43947e-12, No Iterations 1
GAMG:  Solving for f_2, Initial residual = 0.000330299, Final residual = 2.95441e-12, No Iterations 1
ExecutionTime = 0.46 s    ClockTime = 0 s

Time = 0.426

GAMG:  Solving for f_0, Initial residual = 0.000702863, Final residual = 3.22045e-12, No Iterations 1
GAMG:  Solving for f_1, Initial residual = 0.000342224, Final residual = 6.89331e-12, No Iterations 1
GAMG:  Solving for f_2, Initial residual = 0.000328961, Final residual = 3.15864e-12, No Iterations 1
ExecutionTime = 0.46 s    ClockTime = 0 s

Time = 0.428

GAMG:  Solving for f_0, Initial residual = 0.00069844, Final residual = 3.44711e-12, No Iterations 1
GAMG:  Solving for f_1, Initial residual = 0.000340854, Final residual = 7.34506e-12, No Iterations 1
GAMG:  Solving for f_2, Initial residual = 0.00032763, Final residual = 3.38301e-12, No Iterations 1
ExecutionTime = 0.46 s    ClockTime = 0 s

Time = 0.43

GAMG:  Solving for f_0, Initial residual = 0.000694048, Final residual = 3.518e-12, No Iterations 1
GAMG:  Solving for f_1, Initial residual = 0.000339494, Final residual = 7.8301e-12, No Iterations 1
GAMG:  Solving for f_2, Initial residual = 0.000326316, Final residual = 3.61108e-12, No Iterations 1
ExecutionTime = 0.46 s    ClockTime = 0 s

Time = 0.432

GAMG:  Solving for f_0, Initial residual = 0.000689686, Final residual = 3.45024e-12, No Iterations 1
GAMG:  Solving for f_1, Initial residual = 0.000338158, Final residual = 8.34676e-12, No Iterations 1
GAMG:  Solving for f_2, Initial residual = 0.000325011, Final residual = 3.85608e-12, No Iterations 1
ExecutionTime = 0.46 s    ClockTime = 0 s

Time = 0.434

GAMG:  Solving for f_0, Initial residual = 0.000685355, Final residual = 3.53853e-12, No Iterations 1
GAMG:  Solving for f_1, Initial residual = 0.00033683, Final residual = 8.88383e-12, No Iterations 1
[...]
ExecutionTime = 5.83 s    ClockTime = 6 s

Time = 4.892

GAMG:  Solving for f_0, Initial residual = 4.11678e-05, Final residual = 5.98297e-12, No Iterations 1
GAMG:  Solving for f_1, Initial residual = 8.01225e-05, Final residual = 2.58132e-10, No Iterations 1
GAMG:  Solving for f_2, Initial residual = 7.77764e-05, Final residual = 1.40765e-10, No Iterations 1
ExecutionTime = 5.83 s    ClockTime = 6 s

Time = 4.894

GAMG:  Solving for f_0, Initial residual = 4.115e-05, Final residual = 6.02506e-12, No Iterations 1
GAMG:  Solving for f_1, Initial residual = 8.01051e-05, Final residual = 2.5887e-10, No Iterations 1
GAMG:  Solving for f_2, Initial residual = 7.77593e-05, Final residual = 1.41571e-10, No Iterations 1
ExecutionTime = 5.83 s    ClockTime = 6 s

Time = 4.896

GAMG:  Solving for f_0, Initial residual = 4.11322e-05, Final residual = 6.3182e-12, No Iterations 1
GAMG:  Solving for f_1, Initial residual = 8.00877e-05, Final residual = 2.5962e-10, No Iterations 1
GAMG:  Solving for f_2, Initial residual = 7.77422e-05, Final residual = 1.42357e-10, No Iterations 1
ExecutionTime = 5.84 s    ClockTime = 6 s

Time = 4.898

GAMG:  Solving for f_0, Initial residual = 4.11144e-05, Final residual = 6.56953e-12, No Iterations 1
GAMG:  Solving for f_1, Initial residual = 8.00703e-05, Final residual = 2.60384e-10, No Iterations 1
GAMG:  Solving for f_2, Initial residual = 7.77251e-05, Final residual = 1.43144e-10, No Iterations 1
ExecutionTime = 5.84 s    ClockTime = 6 s

Time = 4.9

GAMG:  Solving for f_0, Initial residual = 4.10966e-05, Final residual = 5.48181e-12, No Iterations 1
GAMG:  Solving for f_1, Initial residual = 8.00529e-05, Final residual = 2.61119e-10, No Iterations 1
GAMG:  Solving for f_2, Initial residual = 7.77081e-05, Final residual = 1.43955e-10, No Iterations 1
ExecutionTime = 5.85 s    ClockTime = 6 s

Time = 4.902

GAMG:  Solving for f_0, Initial residual = 4.10788e-05, Final residual = 6.4236e-12, No Iterations 1
GAMG:  Solving for f_1, Initial residual = 8.00355e-05, Final residual = 2.61865e-10, No Iterations 1
GAMG:  Solving for f_2, Initial residual = 7.7691e-05, Final residual = 1.44769e-10, No Iterations 1
ExecutionTime = 5.85 s    ClockTime = 6 s

Time = 4.904

GAMG:  Solving for f_0, Initial residual = 4.1061e-05, Final residual = 6.38202e-12, No Iterations 1
GAMG:  Solving for f_1, Initial residual = 8.00181e-05, Final residual = 2.62613e-10, No Iterations 1
GAMG:  Solving for f_2, Initial residual = 7.76739e-05, Final residual = 1.45543e-10, No Iterations 1
ExecutionTime = 5.85 s    ClockTime = 6 s

Time = 4.906

GAMG:  Solving for f_0, Initial residual = 4.10432e-05, Final residual = 6.34043e-12, No Iterations 1
GAMG:  Solving for f_1, Initial residual = 8.00007e-05, Final residual = 2.63366e-10, No Iterations 1
GAMG:  Solving for f_2, Initial residual = 7.76569e-05, Final residual = 1.46355e-10, No Iterations 1
ExecutionTime = 5.85 s    ClockTime = 6 s

Time = 4.908

GAMG:  Solving for f_0, Initial residual = 4.10254e-05, Final residual = 5.67104e-12, No Iterations 1
GAMG:  Solving for f_1, Initial residual = 7.99833e-05, Final residual = 2.64103e-10, No Iterations 1
GAMG:  Solving for f_2, Initial residual = 7.76398e-05, Final residual = 1.47142e-10, No Iterations 1
ExecutionTime = 5.85 s    ClockTime = 6 s

Time = 4.91

GAMG:  Solving for f_0, Initial residual = 4.10076e-05, Final residual = 6.25724e-12, No Iterations 1
GAMG:  Solving for f_1, Initial residual = 7.9966e-05, Final residual = 2.64843e-10, No Iterations 1
GAMG:  Solving for f_2, Initial residual = 7.76228e-05, Final residual = 1.47943e-10, No Iterations 1
ExecutionTime = 5.86 s    ClockTime = 6 s

Time = 4.912

GAMG:  Solving for f_0, Initial residual = 4.09898e-05, Final residual = 5.83893e-12, No Iterations 1
GAMG:  Solving for f_1, Initial residual = 7.99486e-05, Final residual = 2.65586e-10, No Iterations 1
GAMG:  Solving for f_2, Initial residual = 7.76057e-05, Final residual = 1.48717e-10, No Iterations 1
ExecutionTime = 5.86 s    ClockTime = 6 s

Time = 4.914

GAMG:  Solving for f_0, Initial residual = 4.0972e-05, Final residual = 6.11125e-12, No Iterations 1
GAMG:  Solving for f_1, Initial residual = 7.99312e-05, Final residual = 2.66315e-10, No Iterations 1
GAMG:  Solving for f_2, Initial residual = 7.75886e-05, Final residual = 1.49509e-10, No Iterations 1
ExecutionTime = 5.86 s    ClockTime = 6 s

Time = 4.916

GAMG:  Solving for f_0, Initial residual = 4.09542e-05, Final residual = 6.21614e-12, No Iterations 1
GAMG:  Solving for f_1, Initial residual = 7.99139e-05, Final residual = 2.67054e-10, No Iterations 1
GAMG:  Solving for f_2, Initial residual = 7.75715e-05, Final residual = 1.50318e-10, No Iterations 1
ExecutionTime = 5.86 s    ClockTime = 6 s

Time = 4.918

GAMG:  Solving for f_0, Initial residual = 4.09365e-05, Final residual = 5.90244e-12, No Iterations 1
GAMG:  Solving for f_1, Initial residual = 7.98965e-05, Final residual = 2.67779e-10, No Iterations 1
GAMG:  Solving for f_2, Initial residual = 7.75544e-05, Final residual = 1.51086e-10, No Iterations 1
ExecutionTime = 5.86 s    ClockTime = 6 s

Time = 4.92

GAMG:  Solving for f_0, Initial residual = 4.09187e-05, Final residual = 5.46312e-12, No Iterations 1
GAMG:  Solving for f_1, Initial residual = 7.98791e-05, Final residual = 2.68517e-10, No Iterations 1
GAMG:  Solving for f_2, Initial residual = 7.75373e-05, Final residual = 1.51877e-10, No Iterations 1
ExecutionTime = 5.86 s    ClockTime = 6 s

Time = 4.922

GAMG:  Solving for f_0, Initial residual = 4.09009e-05, Final residual = 6.11225e-12, No Iterations 1
GAMG:  Solving for f_1, Initial residual = 7.98618e-05, Final residual = 2.69256e-10, No Iterations 1
GAMG:  Solving for f_2, Initial residual = 7.75202e-05, Final residual = 1.52659e-10, No Iterations 1
ExecutionTime = 5.87 s    ClockTime = 6 s

Time = 4.924

GAMG:  Solving for f_0, Initial residual = 4.08831e-05, Final residual = 6.07063e-12, No Iterations 1
GAMG:  Solving for f_1, Initial residual = 7.98444e-05, Final residual = 2.69978e-10, No Iterations 1
GAMG:  Solving for f_2, Initial residual = 7.75031e-05, Final residual = 1.53419e-10, No Iterations 1
ExecutionTime = 5.87 s    ClockTime = 6 s

Time = 4.926

GAMG:  Solving for f_0, Initial residual = 4.08654e-05, Final residual = 5.98714e-12, No Iterations 1
GAMG:  Solving for f_1, Initial residual = 7.98271e-05, Final residual = 2.70715e-10, No Iterations 1
GAMG:  Solving for f_2, Initial residual = 7.74861e-05, Final residual = 1.5422e-10, No Iterations 1
ExecutionTime = 5.87 s    ClockTime = 6 s

Time = 4.928

GAMG:  Solving for f_0, Initial residual = 4.08478e-05, Final residual = 6.34328e-12, No Iterations 1
GAMG:  Solving for f_1, Initial residual = 7.98098e-05, Final residual = 2.71453e-10, No Iterations 1
GAMG:  Solving for f_2, Initial residual = 7.7469e-05, Final residual = 1.55007e-10, No Iterations 1
ExecutionTime = 5.87 s    ClockTime = 6 s

Time = 4.93

GAMG:  Solving for f_0, Initial residual = 4.08303e-05, Final residual = 6.07137e-12, No Iterations 1
GAMG:  Solving for f_1, Initial residual = 7.97924e-05, Final residual = 2.72186e-10, No Iterations 1
GAMG:  Solving for f_2, Initial residual = 7.74519e-05, Final residual = 1.55781e-10, No Iterations 1
ExecutionTime = 5.87 s    ClockTime = 6 s

Time = 4.932

GAMG:  Solving for f_0, Initial residual = 4.08128e-05, Final residual = 5.56914e-12, No Iterations 1
GAMG:  Solving for f_1, Initial residual = 7.97751e-05, Final residual = 2.72883e-10, No Iterations 1
GAMG:  Solving for f_2, Initial residual = 7.74349e-05, Final residual = 1.56566e-10, No Iterations 1
ExecutionTime = 5.87 s    ClockTime = 6 s

Time = 4.934

GAMG:  Solving for f_0, Initial residual = 4.07953e-05, Final residual = 6.09281e-12, No Iterations 1
GAMG:  Solving for f_1, Initial residual = 7.97578e-05, Final residual = 2.73619e-10, No Iterations 1
GAMG:  Solving for f_2, Initial residual = 7.74178e-05, Final residual = 1.57341e-10, No Iterations 1
ExecutionTime = 5.88 s    ClockTime = 6 s

Time = 4.936

GAMG:  Solving for f_0, Initial residual = 4.07779e-05, Final residual = 5.77898e-12, No Iterations 1
GAMG:  Solving for f_1, Initial residual = 7.97404e-05, Final residual = 2.74347e-10, No Iterations 1
GAMG:  Solving for f_2, Initial residual = 7.7401e-05, Final residual = 1.58111e-10, No Iterations 1
ExecutionTime = 5.88 s    ClockTime = 6 s

Time = 4.938

GAMG:  Solving for f_0, Initial residual = 4.07604e-05, Final residual = 6.30269e-12, No Iterations 1
GAMG:  Solving for f_1, Initial residual = 7.97231e-05, Final residual = 2.7506e-10, No Iterations 1
GAMG:  Solving for f_2, Initial residual = 7.73844e-05, Final residual = 1.58897e-10, No Iterations 1
ExecutionTime = 5.88 s    ClockTime = 6 s

Time = 4.94

GAMG:  Solving for f_0, Initial residual = 4.07429e-05, Final residual = 5.73757e-12, No Iterations 1
GAMG:  Solving for f_1, Initial residual = 7.97058e-05, Final residual = 2.75783e-10, No Iterations 1
GAMG:  Solving for f_2, Initial residual = 7.73678e-05, Final residual = 1.59659e-10, No Iterations 1
ExecutionTime = 5.88 s    ClockTime = 6 s

Time = 4.942

GAMG:  Solving for f_0, Initial residual = 4.07254e-05, Final residual = 5.38181e-12, No Iterations 1
GAMG:  Solving for f_1, Initial residual = 7.96885e-05, Final residual = 2.76519e-10, No Iterations 1
GAMG:  Solving for f_2, Initial residual = 7.73512e-05, Final residual = 1.60432e-10, No Iterations 1
ExecutionTime = 5.88 s    ClockTime = 6 s

Time = 4.944

GAMG:  Solving for f_0, Initial residual = 4.0708e-05, Final residual = 6.19876e-12, No Iterations 1
GAMG:  Solving for f_1, Initial residual = 7.96712e-05, Final residual = 2.77251e-10, No Iterations 1
GAMG:  Solving for f_2, Initial residual = 7.73346e-05, Final residual = 1.61202e-10, No Iterations 1
ExecutionTime = 5.88 s    ClockTime = 6 s

Time = 4.946

GAMG:  Solving for f_0, Initial residual = 4.06905e-05, Final residual = 5.98958e-12, No Iterations 1
GAMG:  Solving for f_1, Initial residual = 7.96538e-05, Final residual = 2.77952e-10, No Iterations 1
GAMG:  Solving for f_2, Initial residual = 7.7318e-05, Final residual = 1.61976e-10, No Iterations 1
ExecutionTime = 5.89 s    ClockTime = 6 s

Time = 4.948

GAMG:  Solving for f_0, Initial residual = 4.0673e-05, Final residual = 5.61284e-12, No Iterations 1
GAMG:  Solving for f_1, Initial residual = 7.96364e-05, Final residual = 2.78669e-10, No Iterations 1
GAMG:  Solving for f_2, Initial residual = 7.73014e-05, Final residual = 1.62731e-10, No Iterations 1
ExecutionTime = 5.89 s    ClockTime = 6 s

Time = 4.95

GAMG:  Solving for f_0, Initial residual = 4.06556e-05, Final residual = 6.0529e-12, No Iterations 1
GAMG:  Solving for f_1, Initial residual = 7.9619e-05, Final residual = 2.79385e-10, No Iterations 1
GAMG:  Solving for f_2, Initial residual = 7.72849e-05, Final residual = 1.63508e-10, No Iterations 1
ExecutionTime = 5.9 s    ClockTime = 6 s

Time = 4.952

GAMG:  Solving for f_0, Initial residual = 4.06381e-05, Final residual = 5.48763e-12, No Iterations 1
GAMG:  Solving for f_1, Initial residual = 7.96016e-05, Final residual = 2.80104e-10, No Iterations 1
GAMG:  Solving for f_2, Initial residual = 7.72683e-05, Final residual = 1.6428e-10, No Iterations 1
ExecutionTime = 5.9 s    ClockTime = 6 s

Time = 4.954

GAMG:  Solving for f_0, Initial residual = 4.06206e-05, Final residual = 6.0115e-12, No Iterations 1
GAMG:  Solving for f_1, Initial residual = 7.95843e-05, Final residual = 2.80818e-10, No Iterations 1
GAMG:  Solving for f_2, Initial residual = 7.72517e-05, Final residual = 1.65051e-10, No Iterations 1
ExecutionTime = 5.9 s    ClockTime = 6 s

Time = 4.956

GAMG:  Solving for f_0, Initial residual = 4.06032e-05, Final residual = 6.36785e-12, No Iterations 1
GAMG:  Solving for f_1, Initial residual = 7.95669e-05, Final residual = 2.81525e-10, No Iterations 1
GAMG:  Solving for f_2, Initial residual = 7.72351e-05, Final residual = 1.6581e-10, No Iterations 1
ExecutionTime = 5.9 s    ClockTime = 6 s

Time = 4.958

GAMG:  Solving for f_0, Initial residual = 4.05858e-05, Final residual = 6.51474e-12, No Iterations 1
GAMG:  Solving for f_1, Initial residual = 7.95495e-05, Final residual = 2.82228e-10, No Iterations 1
GAMG:  Solving for f_2, Initial residual = 7.72186e-05, Final residual = 1.66568e-10, No Iterations 1
ExecutionTime = 5.91 s    ClockTime = 6 s

Time = 4.96

GAMG:  Solving for f_0, Initial residual = 4.05683e-05, Final residual = 6.09603e-12, No Iterations 1
GAMG:  Solving for f_1, Initial residual = 7.95321e-05, Final residual = 2.82942e-10, No Iterations 1
GAMG:  Solving for f_2, Initial residual = 7.7202e-05, Final residual = 1.67328e-10, No Iterations 1
ExecutionTime = 5.91 s    ClockTime = 6 s

Time = 4.962

GAMG:  Solving for f_0, Initial residual = 4.05509e-05, Final residual = 6.30577e-12, No Iterations 1
GAMG:  Solving for f_1, Initial residual = 7.95148e-05, Final residual = 2.83656e-10, No Iterations 1
GAMG:  Solving for f_2, Initial residual = 7.71854e-05, Final residual = 1.68091e-10, No Iterations 1
ExecutionTime = 5.91 s    ClockTime = 6 s

Time = 4.964

GAMG:  Solving for f_0, Initial residual = 4.05334e-05, Final residual = 6.11748e-12, No Iterations 1
GAMG:  Solving for f_1, Initial residual = 7.94974e-05, Final residual = 2.84367e-10, No Iterations 1
GAMG:  Solving for f_2, Initial residual = 7.71689e-05, Final residual = 1.68838e-10, No Iterations 1
ExecutionTime = 5.91 s    ClockTime = 6 s

Time = 4.966

GAMG:  Solving for f_0, Initial residual = 4.0516e-05, Final residual = 5.88726e-12, No Iterations 1
GAMG:  Solving for f_1, Initial residual = 7.94801e-05, Final residual = 2.85075e-10, No Iterations 1
GAMG:  Solving for f_2, Initial residual = 7.71523e-05, Final residual = 1.69607e-10, No Iterations 1
ExecutionTime = 5.91 s    ClockTime = 6 s

Time = 4.968

GAMG:  Solving for f_0, Initial residual = 4.04986e-05, Final residual = 6.07607e-12, No Iterations 1
GAMG:  Solving for f_1, Initial residual = 7.94627e-05, Final residual = 2.85786e-10, No Iterations 1
GAMG:  Solving for f_2, Initial residual = 7.71358e-05, Final residual = 1.70379e-10, No Iterations 1
ExecutionTime = 5.91 s    ClockTime = 6 s

Time = 4.97

GAMG:  Solving for f_0, Initial residual = 4.04812e-05, Final residual = 6.13918e-12, No Iterations 1
GAMG:  Solving for f_1, Initial residual = 7.94454e-05, Final residual = 2.86473e-10, No Iterations 1
GAMG:  Solving for f_2, Initial residual = 7.71192e-05, Final residual = 1.7112e-10, No Iterations 1
ExecutionTime = 5.92 s    ClockTime = 6 s

Time = 4.972

GAMG:  Solving for f_0, Initial residual = 4.04637e-05, Final residual = 6.22324e-12, No Iterations 1
GAMG:  Solving for f_1, Initial residual = 7.9428e-05, Final residual = 2.87171e-10, No Iterations 1
GAMG:  Solving for f_2, Initial residual = 7.71027e-05, Final residual = 1.71878e-10, No Iterations 1
ExecutionTime = 5.92 s    ClockTime = 6 s

Time = 4.974

GAMG:  Solving for f_0, Initial residual = 4.04463e-05, Final residual = 6.01395e-12, No Iterations 1
GAMG:  Solving for f_1, Initial residual = 7.94107e-05, Final residual = 2.87889e-10, No Iterations 1
GAMG:  Solving for f_2, Initial residual = 7.70862e-05, Final residual = 1.72626e-10, No Iterations 1
ExecutionTime = 5.92 s    ClockTime = 6 s

Time = 4.976

GAMG:  Solving for f_0, Initial residual = 4.04289e-05, Final residual = 5.69986e-12, No Iterations 1
GAMG:  Solving for f_1, Initial residual = 7.93934e-05, Final residual = 2.88588e-10, No Iterations 1
GAMG:  Solving for f_2, Initial residual = 7.70696e-05, Final residual = 1.73388e-10, No Iterations 1
ExecutionTime = 5.92 s    ClockTime = 6 s

Time = 4.978

GAMG:  Solving for f_0, Initial residual = 4.04115e-05, Final residual = 6.0773e-12, No Iterations 1
GAMG:  Solving for f_1, Initial residual = 7.9376e-05, Final residual = 2.89285e-10, No Iterations 1
GAMG:  Solving for f_2, Initial residual = 7.7053e-05, Final residual = 1.74151e-10, No Iterations 1
ExecutionTime = 5.92 s    ClockTime = 6 s

Time = 4.98

GAMG:  Solving for f_0, Initial residual = 4.0394e-05, Final residual = 5.99372e-12, No Iterations 1
GAMG:  Solving for f_1, Initial residual = 7.93587e-05, Final residual = 2.89973e-10, No Iterations 1
GAMG:  Solving for f_2, Initial residual = 7.70364e-05, Final residual = 1.74881e-10, No Iterations 1
ExecutionTime = 5.93 s    ClockTime = 6 s

Time = 4.982

GAMG:  Solving for f_0, Initial residual = 4.03766e-05, Final residual = 5.99396e-12, No Iterations 1
GAMG:  Solving for f_1, Initial residual = 7.93417e-05, Final residual = 2.90678e-10, No Iterations 1
GAMG:  Solving for f_2, Initial residual = 7.70197e-05, Final residual = 1.75642e-10, No Iterations 1
ExecutionTime = 5.93 s    ClockTime = 6 s

Time = 4.984

GAMG:  Solving for f_0, Initial residual = 4.03592e-05, Final residual = 6.11996e-12, No Iterations 1
GAMG:  Solving for f_1, Initial residual = 7.93249e-05, Final residual = 2.91379e-10, No Iterations 1
GAMG:  Solving for f_2, Initial residual = 7.70031e-05, Final residual = 1.76382e-10, No Iterations 1
ExecutionTime = 5.93 s    ClockTime = 6 s

Time = 4.986

GAMG:  Solving for f_0, Initial residual = 4.03418e-05, Final residual = 5.91061e-12, No Iterations 1
GAMG:  Solving for f_1, Initial residual = 7.9308e-05, Final residual = 2.9207e-10, No Iterations 1
GAMG:  Solving for f_2, Initial residual = 7.69865e-05, Final residual = 1.77144e-10, No Iterations 1
ExecutionTime = 5.93 s    ClockTime = 6 s

Time = 4.988

GAMG:  Solving for f_0, Initial residual = 4.03244e-05, Final residual = 5.84797e-12, No Iterations 1
GAMG:  Solving for f_1, Initial residual = 7.92911e-05, Final residual = 2.92771e-10, No Iterations 1
GAMG:  Solving for f_2, Initial residual = 7.69699e-05, Final residual = 1.77868e-10, No Iterations 1
ExecutionTime = 5.93 s    ClockTime = 6 s

Time = 4.99

GAMG:  Solving for f_0, Initial residual = 4.0307e-05, Final residual = 5.76436e-12, No Iterations 1
GAMG:  Solving for f_1, Initial residual = 7.92743e-05, Final residual = 2.93467e-10, No Iterations 1
GAMG:  Solving for f_2, Initial residual = 7.69533e-05, Final residual = 1.78625e-10, No Iterations 1
ExecutionTime = 5.93 s    ClockTime = 6 s

Time = 4.992

GAMG:  Solving for f_0, Initial residual = 4.02899e-05, Final residual = 5.80652e-12, No Iterations 1
GAMG:  Solving for f_1, Initial residual = 7.92574e-05, Final residual = 2.9417e-10, No Iterations 1
GAMG:  Solving for f_2, Initial residual = 7.69367e-05, Final residual = 1.79368e-10, No Iterations 1
ExecutionTime = 5.93 s    ClockTime = 6 s

Time = 4.994

GAMG:  Solving for f_0, Initial residual = 4.02729e-05, Final residual = 5.82772e-12, No Iterations 1
GAMG:  Solving for f_1, Initial residual = 7.92406e-05, Final residual = 2.9483e-10, No Iterations 1
GAMG:  Solving for f_2, Initial residual = 7.69201e-05, Final residual = 1.80116e-10, No Iterations 1
ExecutionTime = 5.94 s    ClockTime = 6 s

Time = 4.996

GAMG:  Solving for f_0, Initial residual = 4.0256e-05, Final residual = 5.84892e-12, No Iterations 1
GAMG:  Solving for f_1, Initial residual = 7.92238e-05, Final residual = 2.95541e-10, No Iterations 1
GAMG:  Solving for f_2, Initial residual = 7.69036e-05, Final residual = 1.80834e-10, No Iterations 1
ExecutionTime = 5.94 s    ClockTime = 6 s

Time = 4.998

GAMG:  Solving for f_0, Initial residual = 4.0239e-05, Final residual = 5.76529e-12, No Iterations 1
GAMG:  Solving for f_1, Initial residual = 7.92071e-05, Final residual = 2.96214e-10, No Iterations 1
GAMG:  Solving for f_2, Initial residual = 7.6887e-05, Final residual = 1.81586e-10, No Iterations 1
ExecutionTime = 5.94 s    ClockTime = 6 s

Time = 5

GAMG:  Solving for f_0, Initial residual = 4.0222e-05, Final residual = 5.57684e-12, No Iterations 1
GAMG:  Solving for f_1, Initial residual = 7.91903e-05, Final residual = 2.96918e-10, No Iterations 1
GAMG:  Solving for f_2, Initial residual = 7.68704e-05, Final residual = 1.82343e-10, No Iterations 1
ExecutionTime = 5.95 s    ClockTime = 6 s

End

